                                  MODFLOW-2005     
      U.S. GEOLOGICAL SURVEY MODULAR FINITE-DIFFERENCE GROUND-WATER FLOW MODEL
                            VERSION 1.12.00 2/3/2017

 LIST FILE: my_model.list
                         UNIT    2

 OPENING my_model.dis
 FILE TYPE:DIS   UNIT   11   STATUS:OLD    
 FORMAT:FORMATTED              ACCESS:SEQUENTIAL          

 OPENING my_model.bas
 FILE TYPE:BAS6   UNIT   13   STATUS:OLD    
 FORMAT:FORMATTED              ACCESS:SEQUENTIAL          

 OPENING my_model.lpf
 FILE TYPE:LPF   UNIT   15   STATUS:OLD    
 FORMAT:FORMATTED              ACCESS:SEQUENTIAL          

 OPENING my_model.oc
 FILE TYPE:OC   UNIT   14   STATUS:OLD    
 FORMAT:FORMATTED              ACCESS:SEQUENTIAL          

 OPENING my_model.pcg
 FILE TYPE:PCG   UNIT   27   STATUS:OLD    
 FORMAT:FORMATTED              ACCESS:SEQUENTIAL          

 OPENING my_model.cbc
 FILE TYPE:DATA(BINARY)   UNIT    1   STATUS:REPLACE
 FORMAT:BINARY                 ACCESS:SEQUENTIAL          

 OPENING my_model.hds
 FILE TYPE:DATA(BINARY)   UNIT   51   STATUS:REPLACE
 FORMAT:BINARY                 ACCESS:SEQUENTIAL          

 BAS -- BASIC PACKAGE, VERSION 7, 5/2/2005 INPUT READ FROM UNIT   13
 
 MODFLOW was compiled using mixed precision
 Precision of REAL variables:           6
 Precision of DOUBLE PRECISION variables:          15

 DISCRETIZATION INPUT DATA READ FROM UNIT   11
 # DIS package for  MODFLOW-2005, generated by Flopy.
    1 LAYERS       100 ROWS       150 COLUMNS
    1 STRESS PERIOD(S) IN SIMULATION
 MODEL TIME UNIT IS DAYS
 MODEL LENGTH UNIT IS FEET
  Confining bed flag for each layer:
   0

                     DELR =   2925.65    

                     DELC =   2727.60    

 TOP ELEVATION OF LAYER 1 =   0.00000    

   MODEL LAYER BOTTOM EL. =  -50.0000     FOR LAYER   1


 STRESS PERIOD     LENGTH       TIME STEPS     MULTIPLIER FOR DELT    SS FLAG
 ----------------------------------------------------------------------------
        1         1.000000          1                    1.000         SS

 STEADY-STATE SIMULATION



 
 # BAS6 package for  MODFLOW-2005, generated by Flopy.                           
 THE FREE FORMAT OPTION HAS BEEN SELECTED



                     BOUNDARY ARRAY FOR LAYER   1
 READING ON UNIT   13 WITH FORMAT: (150I10)            

 AQUIFER HEAD WILL BE SET TO  -999.99     AT ALL NO-FLOW NODES (IBOUND=0).



                       INITIAL HEAD FOR LAYER   1
 READING ON UNIT   13 WITH FORMAT: (150E15.6)          
 # OC package for  MODFLOW-2005, generated by Flopy.

 OUTPUT CONTROL IS SPECIFIED ONLY AT TIME STEPS FOR WHICH OUTPUT IS DESIRED
 COMPACT CELL-BY-CELL BUDGET FILES WILL BE WRITTEN
 AUXILIARY DATA WILL BE SAVED IN CELL-BY-CELL BUDGET FILES
 HEAD PRINT FORMAT CODE IS   0    DRAWDOWN PRINT FORMAT CODE IS   0
 HEADS WILL BE SAVED ON UNIT   51    DRAWDOWNS WILL BE SAVED ON UNIT    0

 LPF -- LAYER-PROPERTY FLOW PACKAGE, VERSION 7, 5/2/2005
         INPUT READ FROM UNIT   15
 # LPF package for  MODFLOW-2005, generated by Flopy.
 CELL-BY-CELL FLOWS WILL BE SAVED ON UNIT    1
 HEAD AT CELLS THAT CONVERT TO DRY= -1.00000E+30
 No named parameters

   LAYER FLAGS:
 LAYER       LAYTYP        LAYAVG         CHANI        LAYVKA        LAYWET
 ---------------------------------------------------------------------------
    1             1             0     1.000E+00             0             0

   INTERPRETATION OF LAYER FLAGS:
                        INTERBLOCK     HORIZONTAL    DATA IN
         LAYER TYPE   TRANSMISSIVITY   ANISOTROPY   ARRAY VKA   WETTABILITY
 LAYER      (LAYTYP)      (LAYAVG)       (CHANI)      (LAYVKA)      (LAYWET)
 ---------------------------------------------------------------------------
    1   CONVERTIBLE      HARMONIC     1.000E+00    VERTICAL K  NON-WETTABLE

 WETTING CAPABILITY IS NOT ACTIVE IN ANY LAYER



              HYD. COND. ALONG ROWS FOR LAYER   1
 READING ON UNIT   15 WITH FORMAT: (150E15.6)          



                VERTICAL HYD. COND. FOR LAYER   1
 READING ON UNIT   15 WITH FORMAT: (150E15.6)          

 PCG -- CONJUGATE-GRADIENT SOLUTION PACKAGE, VERSION 7, 5/2/2005
 # PCG package for  MODFLOW-2005, generated by Flopy.
 MAXIMUM OF     50 CALLS OF SOLUTION ROUTINE
 MAXIMUM OF     30 INTERNAL ITERATIONS PER CALL TO SOLUTION ROUTINE
 MATRIX PRECONDITIONING TYPE :    1



                                    SOLUTION BY THE CONJUGATE-GRADIENT METHOD
                                   -------------------------------------------
                    MAXIMUM NUMBER OF CALLS TO PCG ROUTINE =       50
                        MAXIMUM ITERATIONS PER CALL TO PCG =       30
                               MATRIX PRECONDITIONING TYPE =        1
        RELAXATION FACTOR (ONLY USED WITH PRECOND. TYPE 1) =    0.10000E+01
 PARAMETER OF POLYNOMIAL PRECOND. = 2 (2) OR IS CALCULATED :        0
                         HEAD CHANGE CRITERION FOR CLOSURE =    0.10000E-04
                     RESIDUAL CHANGE CRITERION FOR CLOSURE =    0.10000E-04
            PCG HEAD AND RESIDUAL CHANGE PRINTOUT INTERVAL =      999
     PRINTING FROM SOLVER IS LIMITED(1) OR SUPPRESSED (>1) =        3
                            STEADY-STATE DAMPING PARAMETER =    0.10000E+01
                               TRANSIENT DAMPING PARAMETER =    0.10000E+01
1
                            STRESS PERIOD NO.    1, LENGTH =   1.000000    
                            -----------------------------------------------

                              NUMBER OF TIME STEPS =     1

                               MULTIPLIER FOR DELT =     1.000

                            INITIAL TIME STEP SIZE =   1.000000    
 
 SOLVING FOR HEAD 

 OUTPUT CONTROL FOR STRESS PERIOD    1   TIME STEP    1
    PRINT HEAD FOR ALL LAYERS
    PRINT BUDGET
    SAVE HEAD FOR ALL LAYERS
    SAVE BUDGET
 UBDSV2 SAVING "   CONSTANT HEAD" ON UNIT   1 AT TIME STEP  1, STRESS PERIOD   1
 UBDSV1 SAVING "FLOW RIGHT FACE " ON UNIT   1 AT TIME STEP  1, STRESS PERIOD   1
 UBDSV1 SAVING "FLOW FRONT FACE " ON UNIT   1 AT TIME STEP  1, STRESS PERIOD   1
1
              HEAD IN LAYER   1 AT END OF TIME STEP   1 IN STRESS PERIOD    1
  ---------------------------------------------------------------------------

            1           2           3           4           5           6           7           8           9          10
           11          12          13          14          15          16          17          18          19          20
           21          22          23          24          25          26          27          28          29          30
           31          32          33          34          35          36          37          38          39          40
           41          42          43          44          45          46          47          48          49          50
           51          52          53          54          55          56          57          58          59          60
           61          62          63          64          65          66          67          68          69          70
           71          72          73          74          75          76          77          78          79          80
           81          82          83          84          85          86          87          88          89          90
           91          92          93          94          95          96          97          98          99         100
          101         102         103         104         105         106         107         108         109         110
          111         112         113         114         115         116         117         118         119         120
          121         122         123         124         125         126         127         128         129         130
          131         132         133         134         135         136         137         138         139         140
          141         142         143         144         145         146         147         148         149         150
 ........................................................................................................................
   1    10.00       9.933       9.865       9.798       9.731       9.664       9.597       9.530       9.463       9.396    
        9.329       9.261       9.194       9.127       9.060       8.993       8.926       8.859       8.792       8.725    
        8.657       8.590       8.523       8.456       8.389       8.322       8.255       8.188       8.121       8.054    
        7.986       7.919       7.852       7.785       7.718       7.651       7.583       7.516       7.449       7.382    
        7.315       7.248       7.180       7.113       7.046       6.979       6.912       6.845       6.777       6.710    
        6.643       6.576       6.509       6.442       6.375       6.308       6.240       6.173       6.106       6.039    
        5.972       5.905       5.838       5.771       5.703       5.636       5.569       5.502       5.435       5.368    
        5.300       5.233       5.166       5.099       5.032       4.964       4.897       4.830       4.763       4.696    
        4.629       4.562       4.495       4.428       4.360       4.293       4.226       4.159       4.092       4.025    
        3.958       3.891       3.824       3.757       3.690       3.622       3.555       3.488       3.421       3.354    
        3.287       3.220       3.153       3.086       3.018       2.951       2.884       2.817       2.750       2.683    
        2.616       2.549       2.482       2.415       2.348       2.281       2.214       2.146       2.079       2.012    
        1.945       1.878       1.811       1.744       1.677       1.609       1.542       1.475       1.408       1.341    
        1.274       1.207       1.140       1.073       1.006      0.9390      0.8720      0.8049      0.7377      0.6705    
       0.6032      0.5360      0.4689      0.4018      0.3348      0.2675      0.1999      0.1327      6.5457E-02   0.000    
   2    10.00       9.933       9.865       9.798       9.731       9.664       9.597       9.530       9.463       9.396    
        9.329       9.262       9.194       9.127       9.060       8.993       8.926       8.859       8.792       8.725    
        8.657       8.590       8.523       8.456       8.389       8.322       8.255       8.188       8.121       8.054    
        7.987       7.919       7.852       7.785       7.718       7.651       7.583       7.516       7.449       7.382    
        7.315       7.248       7.180       7.113       7.046       6.979       6.912       6.845       6.777       6.710    
        6.643       6.576       6.509       6.442       6.375       6.308       6.240       6.173       6.106       6.039    
        5.972       5.905       5.838       5.771       5.703       5.636       5.569       5.502       5.435       5.368    
        5.300       5.233       5.166       5.099       5.032       4.965       4.897       4.830       4.763       4.696    
        4.629       4.562       4.495       4.428       4.361       4.293       4.226       4.159       4.092       4.025    
        3.958       3.891       3.824       3.757       3.690       3.622       3.555       3.488       3.421       3.354    
        3.287       3.220       3.153       3.086       3.019       2.951       2.884       2.817       2.750       2.683    
        2.616       2.549       2.482       2.415       2.348       2.281       2.214       2.146       2.079       2.012    
        1.945       1.878       1.811       1.744       1.677       1.610       1.542       1.475       1.408       1.341    
        1.274       1.207       1.140       1.073       1.006      0.9389      0.8719      0.8049      0.7379      0.6706    
       0.6033      0.5360      0.4687      0.4017      0.3347      0.2676      0.1996      0.1321      6.6780E-02   0.000    
   3    10.00       9.933       9.866       9.798       9.731       9.664       9.597       9.530       9.463       9.396    
        9.329       9.262       9.194       9.127       9.060       8.993       8.926       8.859       8.792       8.725    
        8.657       8.590       8.523       8.456       8.389       8.322       8.255       8.188       8.121       8.054    
        7.987       7.919       7.852       7.785       7.718       7.651       7.583       7.516       7.449       7.382    
        7.315       7.248       7.180       7.113       7.046       6.979       6.912       6.845       6.777       6.710    
        6.643       6.576       6.509       6.442       6.375       6.307       6.240       6.173       6.106       6.039    
        5.972       5.905       5.838       5.771       5.703       5.636       5.569       5.502       5.435       5.368    
        5.301       5.233       5.166       5.099       5.032       4.965       4.897       4.830       4.763       4.696    
        4.629       4.562       4.495       4.428       4.361       4.293       4.226       4.159       4.092       4.025    
        3.958       3.891       3.824       3.757       3.690       3.622       3.555       3.488       3.421       3.354    
        3.287       3.220       3.153       3.086       3.019       2.951       2.884       2.817       2.750       2.683    
        2.616       2.549       2.482       2.415       2.348       2.281       2.214       2.147       2.079       2.012    
        1.945       1.878       1.811       1.744       1.677       1.610       1.542       1.475       1.408       1.341    
        1.274       1.207       1.140       1.073       1.006      0.9386      0.8717      0.8047      0.7377      0.6706    
       0.6033      0.5359      0.4686      0.4014      0.3347      0.2685      0.2021      0.1327      6.6887E-02   0.000    
   4    10.00       9.933       9.866       9.798       9.731       9.664       9.597       9.530       9.463       9.396    
        9.329       9.262       9.194       9.127       9.060       8.993       8.926       8.859       8.792       8.724    
        8.657       8.590       8.523       8.456       8.389       8.322       8.255       8.188       8.121       8.054    
        7.986       7.919       7.852       7.785       7.718       7.651       7.583       7.516       7.449       7.382    
        7.315       7.248       7.180       7.113       7.046       6.979       6.912       6.845       6.777       6.710    
        6.643       6.576       6.509       6.442       6.375       6.307       6.240       6.173       6.106       6.039    
        5.972       5.905       5.838       5.771       5.704       5.636       5.569       5.502       5.435       5.368    
        5.301       5.233       5.166       5.099       5.032       4.965       4.898       4.830       4.763       4.696    
        4.629       4.562       4.495       4.428       4.361       4.293       4.226       4.159       4.092       4.025    
        3.958       3.891       3.824       3.757       3.690       3.622       3.555       3.488       3.421       3.354    
        3.287       3.220       3.153       3.086       3.019       2.952       2.884       2.817       2.750       2.683    
        2.616       2.549       2.482       2.415       2.348       2.281       2.214       2.147       2.079       2.012    
        1.945       1.878       1.811       1.744       1.677       1.610       1.542       1.475       1.408       1.341    
        1.274       1.207       1.140       1.073       1.006      0.9384      0.8714      0.8045      0.7376      0.6706    
       0.6035      0.5363      0.4690      0.4018      0.3347      0.2681      0.2017      0.1343      6.7239E-02   0.000    
   5    10.00       9.933       9.866       9.798       9.731       9.664       9.597       9.530       9.463       9.396    
        9.329       9.262       9.194       9.127       9.060       8.993       8.926       8.859       8.792       8.724    
        8.657       8.590       8.523       8.456       8.389       8.322       8.255       8.188       8.121       8.053    
        7.986       7.919       7.852       7.785       7.718       7.651       7.583       7.516       7.449       7.382    
        7.315       7.248       7.180       7.113       7.046       6.979       6.912       6.845       6.777       6.710    
        6.643       6.576       6.509       6.442       6.375       6.307       6.240       6.173       6.106       6.039    
        5.972       5.905       5.838       5.771       5.704       5.636       5.569       5.502       5.435       5.368    
        5.301       5.234       5.166       5.099       5.032       4.965       4.898       4.830       4.763       4.696    
        4.629       4.562       4.495       4.428       4.361       4.293       4.226       4.159       4.092       4.025    
        3.958       3.891       3.824       3.757       3.690       3.622       3.555       3.488       3.421       3.354    
        3.287       3.220       3.153       3.086       3.019       2.952       2.884       2.817       2.750       2.683    
        2.616       2.549       2.482       2.415       2.348       2.281       2.214       2.147       2.079       2.012    
        1.945       1.878       1.811       1.744       1.677       1.610       1.542       1.475       1.408       1.341    
        1.274       1.207       1.140       1.073       1.006      0.9384      0.8713      0.8044      0.7375      0.6706    
       0.6037      0.5366      0.4694      0.4022      0.3349      0.2677      0.2009      0.1349      6.7516E-02   0.000    
   6    10.00       9.933       9.866       9.798       9.731       9.664       9.597       9.530       9.463       9.396    
        9.329       9.262       9.194       9.127       9.060       8.993       8.926       8.859       8.792       8.724    
        8.657       8.590       8.523       8.456       8.389       8.322       8.255       8.188       8.120       8.053    
        7.986       7.919       7.852       7.785       7.718       7.651       7.583       7.516       7.449       7.382    
        7.315       7.248       7.180       7.113       7.046       6.979       6.912       6.845       6.777       6.710    
        6.643       6.576       6.509       6.442       6.374       6.307       6.240       6.173       6.106       6.039    
        5.972       5.905       5.838       5.771       5.704       5.636       5.569       5.502       5.435       5.368    
        5.301       5.234       5.166       5.099       5.032       4.965       4.898       4.831       4.763       4.696    
        4.629       4.562       4.495       4.428       4.361       4.293       4.226       4.159       4.092       4.025    
        3.958       3.891       3.824       3.757       3.690       3.622       3.555       3.488       3.421       3.354    
        3.287       3.220       3.153       3.086       3.019       2.952       2.885       2.817       2.750       2.683    
        2.616       2.549       2.482       2.415       2.348       2.281       2.214       2.147       2.079       2.012    
        1.945       1.878       1.811       1.744       1.677       1.610       1.543       1.475       1.408       1.341    
        1.274       1.207       1.140       1.073       1.006      0.9386      0.8714      0.8044      0.7375      0.6707    
       0.6038      0.5369      0.4697      0.4025      0.3351      0.2677      0.2006      0.1347      6.7533E-02   0.000    
   7    10.00       9.933       9.866       9.798       9.731       9.664       9.597       9.530       9.463       9.396    
        9.329       9.262       9.195       9.127       9.060       8.993       8.926       8.859       8.792       8.724    
        8.657       8.590       8.523       8.456       8.389       8.322       8.255       8.187       8.120       8.053    
        7.986       7.919       7.852       7.785       7.718       7.651       7.583       7.516       7.449       7.382    
        7.315       7.248       7.180       7.113       7.046       6.979       6.912       6.845       6.777       6.710    
        6.643       6.576       6.509       6.442       6.374       6.307       6.240       6.173       6.106       6.039    
        5.972       5.905       5.838       5.771       5.704       5.636       5.569       5.502       5.435       5.368    
        5.301       5.234       5.166       5.099       5.032       4.965       4.898       4.831       4.763       4.696    
        4.629       4.562       4.495       4.428       4.361       4.293       4.226       4.159       4.092       4.025    
        3.958       3.891       3.824       3.757       3.690       3.623       3.555       3.488       3.421       3.354    
        3.287       3.220       3.153       3.086       3.019       2.952       2.885       2.817       2.750       2.683    
        2.616       2.549       2.482       2.415       2.348       2.281       2.214       2.147       2.079       2.012    
        1.945       1.878       1.811       1.744       1.677       1.610       1.543       1.476       1.408       1.341    
        1.274       1.207       1.140       1.073       1.006      0.9388      0.8717      0.8046      0.7376      0.6707    
       0.6039      0.5370      0.4699      0.4026      0.3353      0.2679      0.2007      0.1345      6.7414E-02   0.000    
   8    10.00       9.933       9.866       9.799       9.731       9.664       9.597       9.530       9.463       9.396    
        9.329       9.262       9.195       9.127       9.060       8.993       8.926       8.859       8.791       8.724    
        8.657       8.590       8.523       8.456       8.389       8.321       8.254       8.187       8.120       8.053    
        7.986       7.919       7.852       7.785       7.718       7.651       7.583       7.516       7.449       7.382    
        7.315       7.247       7.180       7.113       7.046       6.979       6.912       6.844       6.777       6.710    
        6.643       6.576       6.509       6.442       6.374       6.307       6.240       6.173       6.106       6.039    
        5.972       5.905       5.838       5.771       5.704       5.636       5.569       5.502       5.435       5.368    
        5.301       5.234       5.167       5.099       5.032       4.965       4.898       4.831       4.764       4.696    
        4.629       4.562       4.495       4.428       4.361       4.293       4.226       4.159       4.092       4.025    
        3.958       3.891       3.824       3.757       3.690       3.623       3.555       3.488       3.421       3.354    
        3.287       3.220       3.153       3.086       3.019       2.952       2.885       2.818       2.750       2.683    
        2.616       2.549       2.482       2.415       2.348       2.281       2.214       2.147       2.079       2.012    
        1.945       1.878       1.811       1.744       1.677       1.610       1.543       1.476       1.408       1.341    
        1.274       1.207       1.140       1.073       1.006      0.9392      0.8720      0.8049      0.7378      0.6708    
       0.6038      0.5369      0.4699      0.4027      0.3354      0.2681      0.2010      0.1344      6.7289E-02   0.000    
   9    10.00       9.933       9.866       9.799       9.731       9.664       9.597       9.530       9.463       9.396    
        9.329       9.262       9.194       9.127       9.060       8.993       8.926       8.859       8.791       8.724    
        8.657       8.590       8.523       8.456       8.388       8.321       8.254       8.187       8.120       8.053    
        7.986       7.919       7.852       7.785       7.718       7.650       7.583       7.516       7.449       7.382    
        7.315       7.247       7.180       7.113       7.046       6.979       6.912       6.844       6.777       6.710    
        6.643       6.576       6.509       6.442       6.374       6.307       6.240       6.173       6.106       6.039    
        5.972       5.905       5.838       5.771       5.704       5.636       5.569       5.502       5.435       5.368    
        5.301       5.234       5.167       5.099       5.032       4.965       4.898       4.831       4.764       4.696    
        4.629       4.562       4.495       4.428       4.361       4.293       4.226       4.159       4.092       4.025    
        3.958       3.891       3.824       3.757       3.690       3.623       3.555       3.488       3.421       3.354    
        3.287       3.220       3.153       3.086       3.019       2.952       2.885       2.818       2.750       2.683    
        2.616       2.549       2.482       2.415       2.348       2.281       2.214       2.147       2.080       2.012    
        1.945       1.878       1.811       1.744       1.677       1.610       1.543       1.476       1.409       1.342    
        1.274       1.207       1.140       1.073       1.006      0.9394      0.8723      0.8052      0.7380      0.6709    
       0.6038      0.5368      0.4698      0.4027      0.3354      0.2682      0.2012      0.1344      6.7206E-02   0.000    
  10    10.00       9.933       9.866       9.799       9.731       9.664       9.597       9.530       9.463       9.396    
        9.329       9.262       9.194       9.127       9.060       8.993       8.926       8.859       8.791       8.724    
        8.657       8.590       8.523       8.456       8.388       8.321       8.254       8.187       8.120       8.053    
        7.986       7.919       7.852       7.785       7.718       7.650       7.583       7.516       7.449       7.382    
        7.315       7.247       7.180       7.113       7.046       6.979       6.912       6.844       6.777       6.710    
        6.643       6.576       6.509       6.441       6.374       6.307       6.240       6.173       6.106       6.039    
        5.972       5.905       5.838       5.771       5.703       5.636       5.569       5.502       5.435       5.368    
        5.301       5.234       5.167       5.099       5.032       4.965       4.898       4.831       4.764       4.697    
        4.629       4.562       4.495       4.428       4.361       4.293       4.226       4.159       4.092       4.025    
        3.958       3.891       3.824       3.757       3.690       3.623       3.556       3.488       3.421       3.354    
        3.287       3.220       3.153       3.086       3.019       2.952       2.885       2.818       2.750       2.683    
        2.616       2.549       2.482       2.415       2.348       2.281       2.214       2.147       2.080       2.012    
        1.945       1.878       1.811       1.744       1.677       1.610       1.543       1.476       1.409       1.342    
        1.275       1.208       1.140       1.073       1.007      0.9396      0.8726      0.8055      0.7383      0.6711    
       0.6040      0.5368      0.4697      0.4026      0.3355      0.2684      0.2013      0.1344      6.7165E-02   0.000    
  11    10.00       9.933       9.866       9.799       9.731       9.664       9.597       9.530       9.463       9.396    
        9.329       9.262       9.194       9.127       9.060       8.993       8.926       8.859       8.791       8.724    
        8.657       8.590       8.523       8.456       8.388       8.321       8.254       8.187       8.120       8.053    
        7.986       7.919       7.852       7.784       7.717       7.650       7.583       7.516       7.449       7.382    
        7.315       7.247       7.180       7.113       7.046       6.979       6.912       6.844       6.777       6.710    
        6.643       6.576       6.509       6.441       6.374       6.307       6.240       6.173       6.106       6.039    
        5.972       5.905       5.838       5.770       5.703       5.636       5.569       5.502       5.435       5.368    
        5.301       5.234       5.167       5.099       5.032       4.965       4.898       4.831       4.764       4.697    
        4.629       4.562       4.495       4.428       4.361       4.294       4.226       4.159       4.092       4.025    
        3.958       3.891       3.824       3.757       3.690       3.623       3.556       3.488       3.421       3.354    
        3.287       3.220       3.153       3.086       3.019       2.952       2.885       2.818       2.751       2.683    
        2.616       2.549       2.482       2.415       2.348       2.281       2.214       2.147       2.080       2.013    
        1.945       1.878       1.811       1.744       1.677       1.610       1.543       1.476       1.409       1.342    
        1.275       1.208       1.141       1.074       1.007      0.9397      0.8727      0.8057      0.7386      0.6714    
       0.6041      0.5369      0.4697      0.4026      0.3355      0.2685      0.2015      0.1344      6.7150E-02   0.000    
  12    10.00       9.933       9.866       9.799       9.731       9.664       9.597       9.530       9.463       9.396    
        9.329       9.262       9.194       9.127       9.060       8.993       8.926       8.859       8.791       8.724    
        8.657       8.590       8.523       8.456       8.388       8.321       8.254       8.187       8.120       8.053    
        7.986       7.919       7.851       7.784       7.717       7.650       7.583       7.516       7.449       7.382    
        7.315       7.247       7.180       7.113       7.046       6.979       6.912       6.844       6.777       6.710    
        6.643       6.576       6.509       6.441       6.374       6.307       6.240       6.173       6.106       6.039    
        5.972       5.904       5.837       5.770       5.703       5.636       5.569       5.502       5.435       5.368    
        5.301       5.234       5.167       5.099       5.032       4.965       4.898       4.831       4.764       4.697    
        4.629       4.562       4.495       4.428       4.361       4.294       4.226       4.159       4.092       4.025    
        3.958       3.891       3.824       3.757       3.690       3.623       3.556       3.489       3.421       3.354    
        3.287       3.220       3.153       3.086       3.019       2.952       2.885       2.818       2.751       2.683    
        2.616       2.549       2.482       2.415       2.348       2.281       2.214       2.147       2.080       2.013    
        1.946       1.878       1.811       1.744       1.677       1.610       1.543       1.476       1.409       1.342    
        1.275       1.208       1.141       1.074       1.007      0.9397      0.8727      0.8058      0.7387      0.6716    
       0.6043      0.5371      0.4698      0.4026      0.3355      0.2685      0.2015      0.1344      6.7144E-02   0.000    
  13    10.00       9.933       9.866       9.799       9.731       9.664       9.597       9.530       9.463       9.396    
        9.329       9.261       9.194       9.127       9.060       8.993       8.926       8.859       8.791       8.724    
        8.657       8.590       8.523       8.456       8.388       8.321       8.254       8.187       8.120       8.053    
        7.986       7.918       7.851       7.784       7.717       7.650       7.583       7.516       7.449       7.382    
        7.315       7.247       7.180       7.113       7.046       6.979       6.911       6.844       6.777       6.710    
        6.643       6.576       6.509       6.441       6.374       6.307       6.240       6.173       6.106       6.039    
        5.972       5.904       5.837       5.770       5.703       5.636       5.569       5.502       5.435       5.368    
        5.301       5.234       5.167       5.100       5.032       4.965       4.898       4.831       4.764       4.697    
        4.630       4.562       4.495       4.428       4.361       4.294       4.226       4.159       4.092       4.025    
        3.958       3.891       3.824       3.757       3.690       3.623       3.556       3.489       3.421       3.354    
        3.287       3.220       3.153       3.086       3.019       2.952       2.885       2.818       2.751       2.684    
        2.616       2.549       2.482       2.415       2.348       2.281       2.214       2.147       2.080       2.013    
        1.946       1.879       1.811       1.744       1.677       1.610       1.543       1.476       1.409       1.342    
        1.275       1.208       1.141       1.074       1.007      0.9397      0.8727      0.8058      0.7388      0.6717    
       0.6045      0.5373      0.4700      0.4027      0.3356      0.2685      0.2015      0.1344      6.7139E-02   0.000    
  14    10.00       9.933       9.866       9.799       9.731       9.664       9.597       9.530       9.463       9.396    
        9.329       9.261       9.194       9.127       9.060       8.993       8.926       8.859       8.791       8.724    
        8.657       8.590       8.523       8.456       8.388       8.321       8.254       8.187       8.120       8.053    
        7.985       7.918       7.851       7.784       7.717       7.650       7.583       7.516       7.449       7.382    
        7.314       7.247       7.180       7.113       7.046       6.979       6.911       6.844       6.777       6.710    
        6.643       6.576       6.509       6.441       6.374       6.307       6.240       6.173       6.106       6.039    
        5.971       5.904       5.837       5.770       5.703       5.636       5.569       5.502       5.435       5.368    
        5.301       5.234       5.167       5.100       5.032       4.965       4.898       4.831       4.764       4.697    
        4.630       4.562       4.495       4.428       4.361       4.294       4.227       4.159       4.092       4.025    
        3.958       3.891       3.824       3.757       3.690       3.623       3.556       3.489       3.421       3.354    
        3.287       3.220       3.153       3.086       3.019       2.952       2.885       2.818       2.751       2.684    
        2.617       2.549       2.482       2.415       2.348       2.281       2.214       2.147       2.080       2.013    
        1.946       1.879       1.812       1.744       1.677       1.610       1.543       1.476       1.409       1.342    
        1.275       1.208       1.141       1.074       1.007      0.9397      0.8727      0.8057      0.7387      0.6717    
       0.6046      0.5374      0.4702      0.4029      0.3357      0.2686      0.2015      0.1344      6.7131E-02   0.000    
  15    10.00       9.933       9.866       9.799       9.731       9.664       9.597       9.530       9.463       9.396    
        9.329       9.261       9.194       9.127       9.060       8.993       8.926       8.859       8.791       8.724    
        8.657       8.590       8.523       8.456       8.388       8.321       8.254       8.187       8.120       8.053    
        7.985       7.918       7.851       7.784       7.717       7.650       7.583       7.516       7.449       7.382    
        7.314       7.247       7.180       7.113       7.046       6.979       6.911       6.844       6.777       6.710    
        6.643       6.576       6.509       6.441       6.374       6.307       6.240       6.173       6.106       6.039    
        5.971       5.904       5.837       5.770       5.703       5.636       5.569       5.502       5.435       5.368    
        5.301       5.234       5.167       5.100       5.032       4.965       4.898       4.831       4.764       4.697    
        4.630       4.563       4.495       4.428       4.361       4.294       4.227       4.159       4.092       4.025    
        3.958       3.891       3.824       3.757       3.690       3.623       3.556       3.489       3.422       3.354    
        3.287       3.220       3.153       3.086       3.019       2.952       2.885       2.818       2.751       2.684    
        2.617       2.549       2.482       2.415       2.348       2.281       2.214       2.147       2.080       2.013    
        1.946       1.879       1.812       1.745       1.677       1.610       1.543       1.476       1.409       1.342    
        1.275       1.208       1.141       1.074       1.007      0.9398      0.8727      0.8056      0.7386      0.6716    
       0.6046      0.5375      0.4703      0.4031      0.3359      0.2687      0.2016      0.1344      6.7124E-02   0.000    
  16    10.00       9.933       9.866       9.799       9.731       9.664       9.597       9.530       9.463       9.396    
        9.329       9.261       9.194       9.127       9.060       8.993       8.926       8.859       8.791       8.724    
        8.657       8.590       8.523       8.456       8.388       8.321       8.254       8.187       8.120       8.052    
        7.985       7.918       7.851       7.784       7.717       7.650       7.583       7.516       7.449       7.382    
        7.314       7.247       7.180       7.113       7.046       6.979       6.911       6.844       6.777       6.710    
        6.643       6.576       6.509       6.441       6.374       6.307       6.240       6.173       6.106       6.039    
        5.971       5.904       5.837       5.770       5.703       5.636       5.569       5.502       5.435       5.368    
        5.301       5.234       5.167       5.100       5.032       4.965       4.898       4.831       4.764       4.697    
        4.630       4.563       4.495       4.428       4.361       4.294       4.227       4.160       4.092       4.025    
        3.958       3.891       3.824       3.757       3.690       3.623       3.556       3.489       3.422       3.354    
        3.287       3.220       3.153       3.086       3.019       2.952       2.885       2.818       2.751       2.684    
        2.617       2.550       2.482       2.415       2.348       2.281       2.214       2.147       2.080       2.013    
        1.946       1.879       1.812       1.745       1.678       1.611       1.543       1.476       1.409       1.342    
        1.275       1.208       1.141       1.074       1.007      0.9398      0.8727      0.8056      0.7385      0.6715    
       0.6045      0.5375      0.4704      0.4033      0.3361      0.2689      0.2017      0.1344      6.7126E-02   0.000    
  17    10.00       9.933       9.866       9.799       9.731       9.664       9.597       9.530       9.463       9.396    
        9.329       9.261       9.194       9.127       9.060       8.993       8.926       8.859       8.791       8.724    
        8.657       8.590       8.523       8.456       8.388       8.321       8.254       8.187       8.120       8.052    
        7.985       7.918       7.851       7.784       7.717       7.650       7.583       7.516       7.449       7.381    
        7.314       7.247       7.180       7.113       7.046       6.979       6.911       6.844       6.777       6.710    
        6.643       6.576       6.509       6.441       6.374       6.307       6.240       6.173       6.106       6.039    
        5.971       5.904       5.837       5.770       5.703       5.636       5.569       5.502       5.435       5.368    
        5.301       5.234       5.167       5.100       5.032       4.965       4.898       4.831       4.764       4.697    
        4.630       4.563       4.495       4.428       4.361       4.294       4.227       4.160       4.092       4.025    
        3.958       3.891       3.824       3.757       3.690       3.623       3.556       3.489       3.422       3.355    
        3.287       3.220       3.153       3.086       3.019       2.952       2.885       2.818       2.751       2.684    
        2.617       2.550       2.483       2.415       2.348       2.281       2.214       2.147       2.080       2.013    
        1.946       1.879       1.812       1.745       1.678       1.611       1.544       1.476       1.409       1.342    
        1.275       1.208       1.141       1.074       1.007      0.9400      0.8728      0.8056      0.7385      0.6714    
       0.6044      0.5374      0.4704      0.4033      0.3362      0.2690      0.2018      0.1345      6.7142E-02   0.000    
  18    10.00       9.933       9.866       9.799       9.731       9.664       9.597       9.530       9.463       9.396    
        9.329       9.261       9.194       9.127       9.060       8.993       8.926       8.859       8.791       8.724    
        8.657       8.590       8.523       8.456       8.388       8.321       8.254       8.187       8.120       8.052    
        7.985       7.918       7.851       7.784       7.717       7.650       7.583       7.515       7.448       7.381    
        7.314       7.247       7.180       7.113       7.046       6.979       6.911       6.844       6.777       6.710    
        6.643       6.576       6.509       6.441       6.374       6.307       6.240       6.173       6.106       6.039    
        5.971       5.904       5.837       5.770       5.703       5.636       5.569       5.502       5.435       5.368    
        5.301       5.234       5.167       5.100       5.032       4.965       4.898       4.831       4.764       4.697    
        4.630       4.563       4.496       4.428       4.361       4.294       4.227       4.160       4.093       4.025    
        3.958       3.891       3.824       3.757       3.690       3.623       3.556       3.489       3.422       3.355    
        3.287       3.220       3.153       3.086       3.019       2.952       2.885       2.818       2.751       2.684    
        2.617       2.550       2.483       2.416       2.348       2.281       2.214       2.147       2.080       2.013    
        1.946       1.879       1.812       1.745       1.678       1.611       1.544       1.477       1.409       1.342    
        1.275       1.208       1.141       1.074       1.007      0.9401      0.8729      0.8056      0.7385      0.6713    
       0.6043      0.5373      0.4703      0.4033      0.3363      0.2691      0.2019      0.1345      6.7171E-02   0.000    
  19    10.00       9.933       9.866       9.799       9.731       9.664       9.597       9.530       9.463       9.396    
        9.329       9.261       9.194       9.127       9.060       8.993       8.926       8.859       8.791       8.724    
        8.657       8.590       8.523       8.456       8.388       8.321       8.254       8.187       8.120       8.052    
        7.985       7.918       7.851       7.784       7.717       7.650       7.582       7.515       7.448       7.381    
        7.314       7.247       7.180       7.113       7.046       6.979       6.911       6.844       6.777       6.710    
        6.643       6.576       6.509       6.441       6.374       6.307       6.240       6.173       6.106       6.039    
        5.971       5.904       5.837       5.770       5.703       5.636       5.569       5.502       5.435       5.368    
        5.301       5.234       5.167       5.099       5.032       4.965       4.898       4.831       4.764       4.697    
        4.630       4.563       4.496       4.428       4.361       4.294       4.227       4.160       4.093       4.025    
        3.958       3.891       3.824       3.757       3.690       3.623       3.556       3.489       3.422       3.355    
        3.287       3.220       3.153       3.086       3.019       2.952       2.885       2.818       2.751       2.684    
        2.617       2.550       2.483       2.416       2.349       2.281       2.214       2.147       2.080       2.013    
        1.946       1.879       1.812       1.745       1.678       1.611       1.544       1.477       1.410       1.342    
        1.275       1.208       1.141       1.074       1.007      0.9401      0.8730      0.8057      0.7385      0.6713    
       0.6042      0.5372      0.4702      0.4032      0.3362      0.2691      0.2019      0.1346      6.7208E-02   0.000    
  20    10.00       9.933       9.866       9.799       9.731       9.664       9.597       9.530       9.463       9.396    
        9.329       9.261       9.194       9.127       9.060       8.993       8.926       8.859       8.791       8.724    
        8.657       8.590       8.523       8.456       8.388       8.321       8.254       8.187       8.120       8.052    
        7.985       7.918       7.851       7.784       7.717       7.649       7.582       7.515       7.448       7.381    
        7.314       7.247       7.180       7.113       7.046       6.979       6.911       6.844       6.777       6.710    
        6.643       6.576       6.509       6.441       6.374       6.307       6.240       6.173       6.106       6.039    
        5.971       5.904       5.837       5.770       5.703       5.636       5.569       5.502       5.435       5.368    
        5.301       5.234       5.166       5.099       5.032       4.965       4.898       4.831       4.764       4.697    
        4.630       4.563       4.496       4.429       4.361       4.294       4.227       4.160       4.093       4.026    
        3.958       3.891       3.824       3.757       3.690       3.623       3.556       3.489       3.422       3.355    
        3.288       3.220       3.153       3.086       3.019       2.952       2.885       2.818       2.751       2.684    
        2.617       2.550       2.483       2.416       2.349       2.282       2.214       2.147       2.080       2.013    
        1.946       1.879       1.812       1.745       1.678       1.611       1.544       1.477       1.410       1.342    
        1.275       1.208       1.141       1.074       1.007      0.9402      0.8730      0.8059      0.7386      0.6714    
       0.6042      0.5371      0.4701      0.4031      0.3362      0.2691      0.2020      0.1346      6.7244E-02   0.000    
  21    10.00       9.933       9.866       9.799       9.731       9.664       9.597       9.530       9.463       9.396    
        9.329       9.261       9.194       9.127       9.060       8.993       8.926       8.859       8.791       8.724    
        8.657       8.590       8.523       8.456       8.388       8.321       8.254       8.187       8.120       8.052    
        7.985       7.918       7.851       7.784       7.717       7.649       7.582       7.515       7.448       7.381    
        7.314       7.247       7.180       7.113       7.046       6.979       6.912       6.844       6.777       6.710    
        6.643       6.576       6.509       6.441       6.374       6.307       6.240       6.173       6.106       6.039    
        5.971       5.904       5.837       5.770       5.703       5.636       5.569       5.502       5.435       5.368    
        5.301       5.233       5.166       5.099       5.032       4.965       4.898       4.831       4.764       4.697    
        4.630       4.563       4.496       4.429       4.361       4.294       4.227       4.160       4.093       4.026    
        3.958       3.891       3.824       3.757       3.690       3.623       3.556       3.489       3.422       3.355    
        3.288       3.221       3.153       3.086       3.019       2.952       2.885       2.818       2.751       2.684    
        2.617       2.550       2.483       2.416       2.349       2.282       2.215       2.147       2.080       2.013    
        1.946       1.879       1.812       1.745       1.678       1.611       1.544       1.477       1.410       1.343    
        1.275       1.208       1.141       1.074       1.007      0.9402      0.8731      0.8059      0.7387      0.6715    
       0.6043      0.5371      0.4700      0.4030      0.3361      0.2691      0.2019      0.1347      6.7270E-02   0.000    
  22    10.00       9.933       9.866       9.799       9.731       9.664       9.597       9.530       9.463       9.396    
        9.329       9.261       9.194       9.127       9.060       8.993       8.926       8.859       8.791       8.724    
        8.657       8.590       8.523       8.456       8.388       8.321       8.254       8.187       8.120       8.052    
        7.985       7.918       7.851       7.784       7.716       7.649       7.582       7.515       7.448       7.381    
        7.314       7.247       7.180       7.113       7.046       6.979       6.911       6.844       6.777       6.710    
        6.643       6.576       6.509       6.441       6.374       6.307       6.240       6.173       6.106       6.039    
        5.971       5.904       5.837       5.770       5.703       5.636       5.569       5.502       5.435       5.367    
        5.300       5.233       5.166       5.099       5.032       4.965       4.898       4.831       4.764       4.697    
        4.630       4.563       4.496       4.429       4.361       4.294       4.227       4.160       4.093       4.026    
        3.959       3.891       3.824       3.757       3.690       3.623       3.556       3.489       3.422       3.355    
        3.288       3.221       3.153       3.086       3.019       2.952       2.885       2.818       2.751       2.684    
        2.617       2.550       2.483       2.416       2.349       2.282       2.215       2.148       2.080       2.013    
        1.946       1.879       1.812       1.745       1.678       1.611       1.544       1.477       1.410       1.343    
        1.276       1.208       1.141       1.074       1.007      0.9401      0.8731      0.8060      0.7388      0.6716    
       0.6044      0.5372      0.4700      0.4030      0.3360      0.2690      0.2019      0.1346      6.7280E-02   0.000    
  23    10.00       9.933       9.866       9.799       9.731       9.664       9.597       9.530       9.463       9.396    
        9.329       9.261       9.194       9.127       9.060       8.993       8.926       8.858       8.791       8.724    
        8.657       8.590       8.523       8.455       8.388       8.321       8.254       8.187       8.120       8.052    
        7.985       7.918       7.851       7.784       7.716       7.649       7.582       7.515       7.448       7.381    
        7.314       7.247       7.180       7.113       7.046       6.979       6.911       6.844       6.777       6.710    
        6.643       6.576       6.509       6.441       6.374       6.307       6.240       6.173       6.106       6.039    
        5.971       5.904       5.837       5.770       5.703       5.636       5.569       5.502       5.435       5.367    
        5.300       5.233       5.166       5.099       5.032       4.965       4.898       4.831       4.764       4.697    
        4.630       4.563       4.496       4.429       4.362       4.294       4.227       4.160       4.093       4.026    
        3.959       3.892       3.824       3.757       3.690       3.623       3.556       3.489       3.422       3.355    
        3.288       3.221       3.154       3.086       3.019       2.952       2.885       2.818       2.751       2.684    
        2.617       2.550       2.483       2.416       2.349       2.282       2.215       2.148       2.081       2.013    
        1.946       1.879       1.812       1.745       1.678       1.611       1.544       1.477       1.410       1.343    
        1.276       1.208       1.141       1.074       1.007      0.9401      0.8731      0.8060      0.7389      0.6717    
       0.6045      0.5373      0.4701      0.4030      0.3359      0.2689      0.2018      0.1346      6.7274E-02   0.000    
  24    10.00       9.933       9.866       9.799       9.731       9.664       9.597       9.530       9.463       9.396    
        9.328       9.261       9.194       9.127       9.060       8.993       8.926       8.858       8.791       8.724    
        8.657       8.590       8.523       8.455       8.388       8.321       8.254       8.187       8.120       8.052    
        7.985       7.918       7.851       7.784       7.716       7.649       7.582       7.515       7.448       7.381    
        7.314       7.247       7.180       7.113       7.046       6.979       6.911       6.844       6.777       6.710    
        6.643       6.576       6.509       6.441       6.374       6.307       6.240       6.173       6.106       6.039    
        5.972       5.904       5.837       5.770       5.703       5.636       5.569       5.502       5.435       5.367    
        5.300       5.233       5.166       5.099       5.032       4.965       4.898       4.831       4.764       4.697    
        4.630       4.563       4.496       4.429       4.362       4.294       4.227       4.160       4.093       4.026    
        3.959       3.892       3.824       3.757       3.690       3.623       3.556       3.489       3.422       3.355    
        3.288       3.221       3.154       3.087       3.019       2.952       2.885       2.818       2.751       2.684    
        2.617       2.550       2.483       2.416       2.349       2.282       2.215       2.148       2.081       2.014    
        1.946       1.879       1.812       1.745       1.678       1.611       1.544       1.477       1.410       1.343    
        1.276       1.209       1.141       1.074       1.007      0.9400      0.8730      0.8060      0.7389      0.6718    
       0.6046      0.5374      0.4702      0.4030      0.3359      0.2688      0.2017      0.1346      6.7255E-02   0.000    
  25    10.00       9.933       9.866       9.799       9.731       9.664       9.597       9.530       9.463       9.396    
        9.328       9.261       9.194       9.127       9.060       8.993       8.926       8.858       8.791       8.724    
        8.657       8.590       8.523       8.455       8.388       8.321       8.254       8.187       8.120       8.052    
        7.985       7.918       7.851       7.784       7.716       7.649       7.582       7.515       7.448       7.381    
        7.314       7.247       7.180       7.112       7.045       6.978       6.911       6.844       6.777       6.710    
        6.643       6.576       6.509       6.442       6.374       6.307       6.240       6.173       6.106       6.039    
        5.972       5.904       5.837       5.770       5.703       5.636       5.569       5.502       5.435       5.367    
        5.300       5.233       5.166       5.099       5.032       4.965       4.898       4.831       4.764       4.697    
        4.630       4.563       4.496       4.429       4.362       4.295       4.227       4.160       4.093       4.026    
        3.959       3.892       3.825       3.757       3.690       3.623       3.556       3.489       3.422       3.355    
        3.288       3.221       3.154       3.087       3.020       2.952       2.885       2.818       2.751       2.684    
        2.617       2.550       2.483       2.416       2.349       2.282       2.215       2.148       2.081       2.014    
        1.947       1.879       1.812       1.745       1.678       1.611       1.544       1.477       1.410       1.343    
        1.276       1.209       1.141       1.074       1.007      0.9400      0.8729      0.8059      0.7389      0.6718    
       0.6047      0.5375      0.4703      0.4031      0.3359      0.2688      0.2017      0.1345      6.7228E-02   0.000    
  26    10.00       9.933       9.866       9.799       9.731       9.664       9.597       9.530       9.463       9.395    
        9.328       9.261       9.194       9.127       9.060       8.993       8.926       8.858       8.791       8.724    
        8.657       8.590       8.523       8.455       8.388       8.321       8.254       8.187       8.120       8.052    
        7.985       7.918       7.851       7.784       7.716       7.649       7.582       7.515       7.448       7.381    
        7.314       7.246       7.179       7.112       7.045       6.978       6.911       6.844       6.777       6.710    
        6.643       6.576       6.509       6.442       6.374       6.307       6.240       6.173       6.106       6.039    
        5.972       5.904       5.837       5.770       5.703       5.636       5.569       5.502       5.435       5.368    
        5.300       5.233       5.166       5.099       5.032       4.965       4.898       4.831       4.764       4.697    
        4.630       4.563       4.496       4.429       4.362       4.295       4.228       4.160       4.093       4.026    
        3.959       3.892       3.825       3.758       3.690       3.623       3.556       3.489       3.422       3.355    
        3.288       3.221       3.154       3.087       3.020       2.953       2.885       2.818       2.751       2.684    
        2.617       2.550       2.483       2.416       2.349       2.282       2.215       2.148       2.081       2.014    
        1.947       1.880       1.812       1.745       1.678       1.611       1.544       1.477       1.410       1.343    
        1.276       1.209       1.141       1.074       1.007      0.9399      0.8729      0.8058      0.7388      0.6718    
       0.6047      0.5376      0.4704      0.4032      0.3360      0.2688      0.2016      0.1345      6.7202E-02   0.000    
  27    10.00       9.933       9.866       9.799       9.731       9.664       9.597       9.530       9.463       9.395    
        9.328       9.261       9.194       9.127       9.060       8.993       8.926       8.858       8.791       8.724    
        8.657       8.590       8.523       8.455       8.388       8.321       8.254       8.187       8.120       8.052    
        7.985       7.918       7.851       7.784       7.717       7.649       7.582       7.515       7.448       7.381    
        7.314       7.246       7.179       7.112       7.045       6.978       6.911       6.844       6.777       6.710    
        6.643       6.576       6.509       6.442       6.374       6.307       6.240       6.173       6.106       6.039    
        5.972       5.904       5.837       5.770       5.703       5.636       5.569       5.502       5.435       5.368    
        5.300       5.233       5.166       5.099       5.032       4.965       4.898       4.831       4.764       4.697    
        4.630       4.563       4.496       4.429       4.362       4.295       4.228       4.160       4.093       4.026    
        3.959       3.892       3.825       3.758       3.691       3.623       3.556       3.489       3.422       3.355    
        3.288       3.221       3.154       3.087       3.020       2.953       2.886       2.818       2.751       2.684    
        2.617       2.550       2.483       2.416       2.349       2.282       2.215       2.148       2.081       2.014    
        1.947       1.880       1.812       1.745       1.678       1.611       1.544       1.477       1.410       1.343    
        1.276       1.209       1.141       1.074       1.007      0.9399      0.8728      0.8058      0.7387      0.6717    
       0.6047      0.5376      0.4705      0.4033      0.3361      0.2688      0.2016      0.1344      6.7181E-02   0.000    
  28    10.00       9.933       9.866       9.799       9.731       9.664       9.597       9.530       9.463       9.395    
        9.328       9.261       9.194       9.127       9.060       8.993       8.926       8.858       8.791       8.724    
        8.657       8.590       8.523       8.455       8.388       8.321       8.254       8.187       8.120       8.052    
        7.985       7.918       7.851       7.784       7.717       7.649       7.582       7.515       7.448       7.381    
        7.313       7.246       7.179       7.112       7.045       6.978       6.911       6.844       6.777       6.710    
        6.643       6.576       6.509       6.442       6.374       6.307       6.240       6.173       6.106       6.039    
        5.972       5.905       5.837       5.770       5.703       5.636       5.569       5.502       5.435       5.368    
        5.300       5.233       5.166       5.099       5.032       4.965       4.898       4.831       4.764       4.697    
        4.630       4.563       4.496       4.429       4.362       4.295       4.228       4.161       4.093       4.026    
        3.959       3.892       3.825       3.758       3.691       3.623       3.556       3.489       3.422       3.355    
        3.288       3.221       3.154       3.087       3.020       2.953       2.886       2.819       2.751       2.684    
        2.617       2.550       2.483       2.416       2.349       2.282       2.215       2.148       2.081       2.014    
        1.947       1.880       1.813       1.745       1.678       1.611       1.544       1.477       1.410       1.343    
        1.276       1.209       1.142       1.074       1.007      0.9400      0.8728      0.8057      0.7387      0.6717    
       0.6046      0.5376      0.4705      0.4033      0.3361      0.2689      0.2017      0.1344      6.7169E-02   0.000    
  29    10.00       9.933       9.866       9.799       9.731       9.664       9.597       9.530       9.463       9.395    
        9.328       9.261       9.194       9.127       9.060       8.993       8.925       8.858       8.791       8.724    
        8.657       8.590       8.523       8.455       8.388       8.321       8.254       8.187       8.120       8.052    
        7.985       7.918       7.851       7.784       7.717       7.649       7.582       7.515       7.448       7.381    
        7.313       7.246       7.179       7.112       7.045       6.978       6.911       6.844       6.777       6.710    
        6.643       6.576       6.509       6.442       6.374       6.307       6.240       6.173       6.106       6.039    
        5.972       5.905       5.837       5.770       5.703       5.636       5.569       5.502       5.435       5.368    
        5.301       5.233       5.166       5.099       5.032       4.965       4.898       4.831       4.764       4.697    
        4.630       4.563       4.496       4.429       4.362       4.295       4.228       4.161       4.094       4.026    
        3.959       3.892       3.825       3.758       3.691       3.624       3.556       3.489       3.422       3.355    
        3.288       3.221       3.154       3.087       3.020       2.953       2.886       2.819       2.752       2.684    
        2.617       2.550       2.483       2.416       2.349       2.282       2.215       2.148       2.081       2.014    
        1.947       1.880       1.813       1.746       1.678       1.611       1.544       1.477       1.410       1.343    
        1.276       1.209       1.142       1.074       1.007      0.9400      0.8728      0.8057      0.7386      0.6716    
       0.6046      0.5375      0.4705      0.4034      0.3362      0.2690      0.2017      0.1345      6.7167E-02   0.000    
  30    10.00       9.933       9.866       9.799       9.731       9.664       9.597       9.530       9.463       9.395    
        9.328       9.261       9.194       9.127       9.060       8.993       8.925       8.858       8.791       8.724    
        8.657       8.590       8.523       8.455       8.388       8.321       8.254       8.187       8.120       8.052    
        7.985       7.918       7.851       7.784       7.717       7.649       7.582       7.515       7.448       7.381    
        7.314       7.246       7.179       7.112       7.045       6.978       6.911       6.844       6.777       6.710    
        6.643       6.576       6.509       6.442       6.375       6.307       6.240       6.173       6.106       6.039    
        5.972       5.905       5.837       5.770       5.703       5.636       5.569       5.502       5.435       5.368    
        5.301       5.234       5.166       5.099       5.032       4.965       4.898       4.831       4.764       4.697    
        4.630       4.563       4.496       4.429       4.362       4.295       4.228       4.161       4.094       4.027    
        3.959       3.892       3.825       3.758       3.691       3.624       3.557       3.489       3.422       3.355    
        3.288       3.221       3.154       3.087       3.020       2.953       2.886       2.819       2.752       2.685    
        2.617       2.550       2.483       2.416       2.349       2.282       2.215       2.148       2.081       2.014    
        1.947       1.880       1.813       1.746       1.678       1.611       1.544       1.477       1.410       1.343    
        1.276       1.209       1.142       1.074       1.007      0.9400      0.8729      0.8057      0.7386      0.6715    
       0.6045      0.5375      0.4704      0.4034      0.3362      0.2690      0.2018      0.1345      6.7173E-02   0.000    
  31    10.00       9.933       9.866       9.799       9.731       9.664       9.597       9.530       9.462       9.395    
        9.328       9.261       9.194       9.127       9.060       8.993       8.925       8.858       8.791       8.724    
        8.657       8.590       8.523       8.455       8.388       8.321       8.254       8.187       8.120       8.052    
        7.985       7.918       7.851       7.784       7.717       7.649       7.582       7.515       7.448       7.381    
        7.314       7.246       7.179       7.112       7.045       6.978       6.911       6.844       6.777       6.710    
        6.643       6.576       6.509       6.442       6.375       6.307       6.240       6.173       6.106       6.039    
        5.972       5.905       5.838       5.770       5.703       5.636       5.569       5.502       5.435       5.368    
        5.301       5.234       5.166       5.099       5.032       4.965       4.898       4.831       4.764       4.697    
        4.630       4.563       4.496       4.429       4.362       4.295       4.228       4.161       4.094       4.027    
        3.960       3.892       3.825       3.758       3.691       3.624       3.557       3.490       3.422       3.355    
        3.288       3.221       3.154       3.087       3.020       2.953       2.886       2.819       2.752       2.685    
        2.618       2.550       2.483       2.416       2.349       2.282       2.215       2.148       2.081       2.014    
        1.947       1.880       1.813       1.746       1.679       1.611       1.544       1.477       1.410       1.343    
        1.276       1.209       1.142       1.074       1.007      0.9401      0.8729      0.8057      0.7386      0.6715    
       0.6044      0.5374      0.4704      0.4033      0.3362      0.2690      0.2018      0.1345      6.7184E-02   0.000    
  32    10.00       9.933       9.866       9.799       9.731       9.664       9.597       9.530       9.462       9.395    
        9.328       9.261       9.194       9.127       9.060       8.993       8.925       8.858       8.791       8.724    
        8.657       8.590       8.523       8.455       8.388       8.321       8.254       8.187       8.120       8.052    
        7.985       7.918       7.851       7.784       7.717       7.649       7.582       7.515       7.448       7.381    
        7.314       7.246       7.179       7.112       7.045       6.978       6.911       6.844       6.777       6.710    
        6.643       6.576       6.509       6.442       6.375       6.307       6.240       6.173       6.106       6.039    
        5.972       5.905       5.838       5.770       5.703       5.636       5.569       5.502       5.435       5.368    
        5.301       5.234       5.167       5.099       5.032       4.965       4.898       4.831       4.764       4.697    
        4.630       4.563       4.496       4.429       4.362       4.295       4.228       4.161       4.094       4.027    
        3.960       3.893       3.825       3.758       3.691       3.624       3.557       3.490       3.423       3.355    
        3.288       3.221       3.154       3.087       3.020       2.953       2.886       2.819       2.752       2.685    
        2.618       2.551       2.483       2.416       2.349       2.282       2.215       2.148       2.081       2.014    
        1.947       1.880       1.813       1.746       1.679       1.611       1.544       1.477       1.410       1.343    
        1.276       1.209       1.141       1.074       1.007      0.9401      0.8729      0.8057      0.7386      0.6715    
       0.6044      0.5373      0.4703      0.4033      0.3362      0.2690      0.2018      0.1345      6.7197E-02   0.000    
  33    10.00       9.933       9.866       9.799       9.731       9.664       9.597       9.530       9.462       9.395    
        9.328       9.261       9.194       9.127       9.060       8.993       8.925       8.858       8.791       8.724    
        8.657       8.590       8.523       8.455       8.388       8.321       8.254       8.187       8.120       8.052    
        7.985       7.918       7.851       7.784       7.717       7.649       7.582       7.515       7.448       7.381    
        7.314       7.246       7.179       7.112       7.045       6.978       6.911       6.844       6.777       6.710    
        6.643       6.576       6.509       6.442       6.375       6.307       6.240       6.173       6.106       6.039    
        5.972       5.905       5.838       5.771       5.703       5.636       5.569       5.502       5.435       5.368    
        5.301       5.234       5.167       5.099       5.032       4.965       4.898       4.831       4.764       4.697    
        4.630       4.563       4.496       4.429       4.362       4.295       4.228       4.161       4.094       4.027    
        3.960       3.893       3.825       3.758       3.691       3.624       3.557       3.490       3.423       3.356    
        3.288       3.221       3.154       3.087       3.020       2.953       2.886       2.819       2.752       2.685    
        2.618       2.551       2.483       2.416       2.349       2.282       2.215       2.148       2.081       2.014    
        1.947       1.880       1.813       1.746       1.679       1.611       1.544       1.477       1.410       1.343    
        1.276       1.209       1.141       1.074       1.007      0.9401      0.8730      0.8058      0.7386      0.6715    
       0.6044      0.5373      0.4702      0.4032      0.3361      0.2690      0.2018      0.1345      6.7207E-02   0.000    
  34    10.00       9.933       9.866       9.799       9.731       9.664       9.597       9.530       9.462       9.395    
        9.328       9.261       9.194       9.127       9.060       8.993       8.925       8.858       8.791       8.724    
        8.657       8.590       8.523       8.455       8.388       8.321       8.254       8.187       8.120       8.052    
        7.985       7.918       7.851       7.784       7.717       7.649       7.582       7.515       7.448       7.381    
        7.314       7.247       7.179       7.112       7.045       6.978       6.911       6.844       6.777       6.710    
        6.643       6.576       6.509       6.442       6.374       6.307       6.240       6.173       6.106       6.039    
        5.972       5.905       5.838       5.771       5.703       5.636       5.569       5.502       5.435       5.368    
        5.301       5.234       5.167       5.100       5.032       4.965       4.898       4.831       4.764       4.697    
        4.630       4.563       4.496       4.429       4.362       4.295       4.228       4.161       4.094       4.027    
        3.960       3.893       3.826       3.758       3.691       3.624       3.557       3.490       3.423       3.356    
        3.289       3.221       3.154       3.087       3.020       2.953       2.886       2.819       2.752       2.685    
        2.618       2.551       2.484       2.416       2.349       2.282       2.215       2.148       2.081       2.014    
        1.947       1.880       1.813       1.746       1.679       1.611       1.544       1.477       1.410       1.343    
        1.276       1.208       1.141       1.074       1.007      0.9401      0.8730      0.8058      0.7386      0.6715    
       0.6044      0.5373      0.4702      0.4031      0.3361      0.2690      0.2018      0.1345      6.7212E-02   0.000    
  35    10.00       9.933       9.866       9.799       9.731       9.664       9.597       9.530       9.462       9.395    
        9.328       9.261       9.194       9.127       9.060       8.993       8.925       8.858       8.791       8.724    
        8.657       8.590       8.523       8.455       8.388       8.321       8.254       8.187       8.120       8.053    
        7.985       7.918       7.851       7.784       7.717       7.649       7.582       7.515       7.448       7.381    
        7.314       7.247       7.179       7.112       7.045       6.978       6.911       6.844       6.777       6.710    
        6.643       6.576       6.509       6.441       6.374       6.307       6.240       6.173       6.106       6.039    
        5.972       5.905       5.838       5.771       5.704       5.636       5.569       5.502       5.435       5.368    
        5.301       5.234       5.167       5.100       5.033       4.965       4.898       4.831       4.764       4.697    
        4.630       4.563       4.496       4.429       4.362       4.295       4.228       4.161       4.094       4.027    
        3.960       3.893       3.826       3.759       3.691       3.624       3.557       3.490       3.423       3.356    
        3.289       3.221       3.154       3.087       3.020       2.953       2.886       2.819       2.752       2.685    
        2.618       2.551       2.484       2.417       2.349       2.282       2.215       2.148       2.081       2.014    
        1.947       1.880       1.813       1.746       1.679       1.611       1.544       1.477       1.410       1.343    
        1.276       1.208       1.141       1.074       1.007      0.9401      0.8730      0.8058      0.7387      0.6715    
       0.6044      0.5372      0.4702      0.4031      0.3360      0.2689      0.2018      0.1345      6.7211E-02   0.000    
  36    10.00       9.933       9.866       9.799       9.731       9.664       9.597       9.530       9.462       9.395    
        9.328       9.261       9.194       9.127       9.060       8.993       8.925       8.858       8.791       8.724    
        8.657       8.590       8.522       8.455       8.388       8.321       8.254       8.187       8.120       8.053    
        7.985       7.918       7.851       7.784       7.717       7.649       7.582       7.515       7.448       7.381    
        7.314       7.247       7.179       7.112       7.045       6.978       6.911       6.844       6.777       6.709    
        6.642       6.575       6.508       6.441       6.374       6.307       6.240       6.173       6.106       6.039    
        5.972       5.905       5.838       5.771       5.704       5.636       5.569       5.502       5.435       5.368    
        5.301       5.234       5.167       5.100       5.033       4.965       4.898       4.831       4.764       4.697    
        4.630       4.563       4.496       4.429       4.362       4.295       4.228       4.161       4.094       4.027    
        3.960       3.893       3.826       3.759       3.692       3.624       3.557       3.490       3.423       3.356    
        3.289       3.222       3.154       3.087       3.020       2.953       2.886       2.819       2.752       2.685    
        2.618       2.551       2.484       2.417       2.349       2.282       2.215       2.148       2.081       2.014    
        1.947       1.880       1.813       1.746       1.679       1.611       1.544       1.477       1.410       1.343    
        1.276       1.208       1.141       1.074       1.007      0.9401      0.8730      0.8058      0.7387      0.6715    
       0.6044      0.5373      0.4701      0.4030      0.3360      0.2689      0.2017      0.1345      6.7204E-02   0.000    
  37    10.00       9.933       9.866       9.799       9.731       9.664       9.597       9.530       9.462       9.395    
        9.328       9.261       9.194       9.127       9.060       8.993       8.925       8.858       8.791       8.724    
        8.657       8.590       8.522       8.455       8.388       8.321       8.254       8.187       8.120       8.053    
        7.985       7.918       7.851       7.784       7.717       7.650       7.582       7.515       7.448       7.381    
        7.314       7.247       7.179       7.112       7.045       6.978       6.911       6.844       6.777       6.709    
        6.642       6.575       6.508       6.441       6.374       6.307       6.240       6.173       6.106       6.039    
        5.972       5.905       5.838       5.771       5.704       5.637       5.569       5.502       5.435       5.368    
        5.301       5.234       5.167       5.100       5.033       4.966       4.898       4.831       4.764       4.697    
        4.630       4.563       4.496       4.429       4.362       4.295       4.228       4.161       4.094       4.027    
        3.960       3.893       3.826       3.759       3.692       3.625       3.557       3.490       3.423       3.356    
        3.289       3.222       3.155       3.087       3.020       2.953       2.886       2.819       2.752       2.685    
        2.618       2.551       2.484       2.417       2.350       2.282       2.215       2.148       2.081       2.014    
        1.947       1.880       1.813       1.746       1.679       1.611       1.544       1.477       1.410       1.343    
        1.276       1.209       1.141       1.074       1.007      0.9400      0.8729      0.8058      0.7387      0.6716    
       0.6044      0.5373      0.4701      0.4030      0.3359      0.2688      0.2017      0.1345      6.7192E-02   0.000    
  38    10.00       9.933       9.866       9.799       9.731       9.664       9.597       9.530       9.462       9.395    
        9.328       9.261       9.194       9.127       9.060       8.993       8.925       8.858       8.791       8.724    
        8.657       8.590       8.522       8.455       8.388       8.321       8.254       8.187       8.120       8.053    
        7.985       7.918       7.851       7.784       7.717       7.650       7.582       7.515       7.448       7.381    
        7.314       7.247       7.180       7.112       7.045       6.978       6.911       6.844       6.777       6.709    
        6.642       6.575       6.508       6.441       6.374       6.307       6.240       6.173       6.106       6.039    
        5.972       5.905       5.838       5.771       5.704       5.637       5.570       5.502       5.435       5.368    
        5.301       5.234       5.167       5.100       5.033       4.966       4.899       4.831       4.764       4.697    
        4.630       4.563       4.496       4.429       4.362       4.295       4.228       4.161       4.094       4.027    
        3.960       3.893       3.826       3.759       3.692       3.625       3.558       3.490       3.423       3.356    
        3.289       3.222       3.155       3.088       3.020       2.953       2.886       2.819       2.752       2.685    
        2.618       2.551       2.484       2.417       2.350       2.282       2.215       2.148       2.081       2.014    
        1.947       1.880       1.813       1.746       1.679       1.611       1.544       1.477       1.410       1.343    
        1.276       1.209       1.141       1.074       1.007      0.9400      0.8729      0.8058      0.7387      0.6716    
       0.6044      0.5373      0.4701      0.4030      0.3359      0.2688      0.2016      0.1344      6.7177E-02   0.000    
[...]
        5.975       5.907       5.840       5.773       5.706       5.639       5.572       5.505       5.438       5.371    
        5.304       5.236       5.169       5.102       5.035       4.968       4.901       4.834       4.767       4.699    
        4.632       4.565       4.498       4.431       4.364       4.297       4.230       4.162       4.095       4.028    
        3.961       3.894       3.827       3.759       3.692       3.625       3.558       3.491       3.424       3.357    
        3.290       3.222       3.155       3.088       3.021       2.954       2.887       2.819       2.752       2.685    
        2.618       2.551       2.484       2.417       2.349       2.282       2.215       2.148       2.081       2.014    
        1.947       1.879       1.812       1.745       1.678       1.611       1.544       1.477       1.410       1.342    
        1.275       1.208       1.141       1.074       1.007      0.9398      0.8727      0.8056      0.7385      0.6713    
       0.6042      0.5371      0.4700      0.4028      0.3357      0.2685      0.2014      0.1344      6.7159E-02   0.000    
  92    10.00       9.933       9.866       9.799       9.732       9.665       9.598       9.531       9.464       9.397    
        9.329       9.262       9.195       9.128       9.061       8.994       8.927       8.860       8.793       8.726    
        8.659       8.591       8.524       8.457       8.390       8.323       8.256       8.189       8.122       8.055    
        7.988       7.921       7.853       7.786       7.719       7.652       7.585       7.518       7.451       7.384    
        7.317       7.250       7.183       7.115       7.048       6.981       6.914       6.847       6.780       6.713    
        6.646       6.578       6.511       6.444       6.377       6.310       6.243       6.176       6.109       6.042    
        5.975       5.908       5.840       5.773       5.706       5.639       5.572       5.505       5.438       5.371    
        5.304       5.236       5.169       5.102       5.035       4.968       4.901       4.834       4.767       4.699    
        4.632       4.565       4.498       4.431       4.364       4.297       4.230       4.162       4.095       4.028    
        3.961       3.894       3.827       3.759       3.692       3.625       3.558       3.491       3.424       3.357    
        3.289       3.222       3.155       3.088       3.021       2.954       2.887       2.819       2.752       2.685    
        2.618       2.551       2.484       2.417       2.349       2.282       2.215       2.148       2.081       2.014    
        1.946       1.879       1.812       1.745       1.678       1.611       1.544       1.477       1.410       1.342    
        1.275       1.208       1.141       1.074       1.007      0.9398      0.8727      0.8056      0.7385      0.6714    
       0.6042      0.5371      0.4700      0.4029      0.3357      0.2686      0.2015      0.1344      6.7186E-02   0.000    
  93    10.00       9.933       9.866       9.799       9.732       9.665       9.598       9.531       9.464       9.397    
        9.330       9.262       9.195       9.128       9.061       8.994       8.927       8.860       8.793       8.726    
        8.659       8.592       8.524       8.457       8.390       8.323       8.256       8.189       8.122       8.055    
        7.988       7.921       7.854       7.786       7.719       7.652       7.585       7.518       7.451       7.384    
        7.317       7.250       7.183       7.115       7.048       6.981       6.914       6.847       6.780       6.713    
        6.646       6.579       6.511       6.444       6.377       6.310       6.243       6.176       6.109       6.042    
        5.975       5.908       5.840       5.773       5.706       5.639       5.572       5.505       5.438       5.371    
        5.304       5.236       5.169       5.102       5.035       4.968       4.901       4.834       4.767       4.699    
        4.632       4.565       4.498       4.431       4.364       4.297       4.230       4.162       4.095       4.028    
        3.961       3.894       3.827       3.759       3.692       3.625       3.558       3.491       3.424       3.357    
        3.289       3.222       3.155       3.088       3.021       2.954       2.887       2.819       2.752       2.685    
        2.618       2.551       2.484       2.417       2.349       2.282       2.215       2.148       2.081       2.014    
        1.946       1.879       1.812       1.745       1.678       1.611       1.544       1.477       1.410       1.342    
        1.275       1.208       1.141       1.074       1.007      0.9398      0.8727      0.8056      0.7385      0.6714    
       0.6042      0.5371      0.4700      0.4029      0.3358      0.2686      0.2015      0.1344      6.7221E-02   0.000    
  94    10.00       9.933       9.866       9.799       9.732       9.664       9.598       9.531       9.464       9.397    
        9.330       9.262       9.195       9.128       9.061       8.994       8.927       8.860       8.793       8.726    
        8.659       8.592       8.525       8.457       8.390       8.323       8.256       8.189       8.122       8.055    
        7.988       7.921       7.854       7.786       7.719       7.652       7.585       7.518       7.451       7.384    
        7.317       7.250       7.183       7.116       7.048       6.981       6.914       6.847       6.780       6.713    
        6.646       6.579       6.511       6.444       6.377       6.310       6.243       6.176       6.109       6.042    
        5.975       5.908       5.841       5.773       5.706       5.639       5.572       5.505       5.438       5.371    
        5.304       5.236       5.169       5.102       5.035       4.968       4.901       4.834       4.767       4.700    
        4.632       4.565       4.498       4.431       4.364       4.297       4.230       4.162       4.095       4.028    
        3.961       3.894       3.827       3.759       3.692       3.625       3.558       3.491       3.424       3.357    
        3.289       3.222       3.155       3.088       3.021       2.954       2.887       2.819       2.752       2.685    
        2.618       2.551       2.484       2.416       2.349       2.282       2.215       2.148       2.081       2.014    
        1.946       1.879       1.812       1.745       1.678       1.611       1.544       1.477       1.409       1.342    
        1.275       1.208       1.141       1.074       1.007      0.9398      0.8727      0.8056      0.7385      0.6714    
       0.6043      0.5372      0.4701      0.4029      0.3358      0.2687      0.2015      0.1345      6.7264E-02   0.000    
  95    10.00       9.933       9.866       9.799       9.732       9.664       9.597       9.531       9.464       9.397    
        9.330       9.263       9.195       9.128       9.061       8.994       8.927       8.860       8.793       8.726    
        8.659       8.592       8.525       8.458       8.390       8.323       8.256       8.189       8.122       8.055    
        7.988       7.921       7.854       7.786       7.719       7.652       7.585       7.518       7.451       7.384    
        7.317       7.250       7.183       7.116       7.048       6.981       6.914       6.847       6.780       6.713    
        6.646       6.579       6.512       6.444       6.377       6.310       6.243       6.176       6.109       6.042    
        5.975       5.908       5.841       5.773       5.706       5.639       5.572       5.505       5.438       5.371    
        5.304       5.236       5.169       5.102       5.035       4.968       4.901       4.834       4.767       4.700    
        4.632       4.565       4.498       4.431       4.364       4.297       4.230       4.162       4.095       4.028    
        3.961       3.894       3.827       3.760       3.692       3.625       3.558       3.491       3.424       3.357    
        3.289       3.222       3.155       3.088       3.021       2.954       2.887       2.819       2.752       2.685    
        2.618       2.551       2.484       2.416       2.349       2.282       2.215       2.148       2.081       2.013    
        1.946       1.879       1.812       1.745       1.678       1.611       1.544       1.477       1.409       1.342    
        1.275       1.208       1.141       1.074       1.007      0.9398      0.8727      0.8057      0.7386      0.6715    
       0.6043      0.5372      0.4701      0.4030      0.3359      0.2687      0.2016      0.1345      6.7317E-02   0.000    
  96    10.00       9.934       9.867       9.800       9.732       9.665       9.597       9.530       9.464       9.397    
        9.330       9.263       9.196       9.128       9.061       8.994       8.927       8.860       8.793       8.726    
        8.659       8.592       8.525       8.458       8.391       8.323       8.256       8.189       8.122       8.055    
        7.988       7.921       7.854       7.786       7.719       7.652       7.585       7.518       7.451       7.384    
        7.317       7.250       7.183       7.116       7.049       6.981       6.914       6.847       6.780       6.713    
        6.646       6.579       6.512       6.444       6.377       6.310       6.243       6.176       6.109       6.042    
        5.975       5.908       5.841       5.774       5.706       5.639       5.572       5.505       5.438       5.371    
        5.304       5.236       5.169       5.102       5.035       4.968       4.901       4.834       4.767       4.700    
        4.632       4.565       4.498       4.431       4.364       4.297       4.230       4.162       4.095       4.028    
        3.961       3.894       3.827       3.760       3.692       3.625       3.558       3.491       3.424       3.357    
        3.289       3.222       3.155       3.088       3.021       2.954       2.887       2.819       2.752       2.685    
        2.618       2.551       2.484       2.416       2.349       2.282       2.215       2.148       2.081       2.013    
        1.946       1.879       1.812       1.745       1.678       1.611       1.544       1.476       1.409       1.342    
        1.275       1.208       1.141       1.074       1.007      0.9398      0.8728      0.8057      0.7386      0.6715    
       0.6044      0.5373      0.4702      0.4031      0.3360      0.2688      0.2017      0.1346      6.7384E-02   0.000    
  97    10.00       9.934       9.867       9.800       9.733       9.665       9.598       9.530       9.463       9.397    
        9.330       9.263       9.196       9.128       9.061       8.994       8.927       8.860       8.793       8.726    
        8.659       8.592       8.525       8.458       8.391       8.324       8.256       8.189       8.122       8.055    
        7.988       7.921       7.854       7.787       7.719       7.652       7.585       7.518       7.451       7.384    
        7.317       7.250       7.183       7.116       7.049       6.981       6.914       6.847       6.780       6.713    
        6.646       6.579       6.512       6.445       6.377       6.310       6.243       6.176       6.109       6.042    
        5.975       5.908       5.841       5.774       5.706       5.639       5.572       5.505       5.438       5.371    
        5.304       5.236       5.169       5.102       5.035       4.968       4.901       4.834       4.767       4.700    
        4.632       4.565       4.498       4.431       4.364       4.297       4.230       4.162       4.095       4.028    
        3.961       3.894       3.827       3.760       3.692       3.625       3.558       3.491       3.424       3.357    
        3.289       3.222       3.155       3.088       3.021       2.954       2.886       2.819       2.752       2.685    
        2.618       2.551       2.484       2.416       2.349       2.282       2.215       2.148       2.081       2.013    
        1.946       1.879       1.812       1.745       1.678       1.611       1.544       1.476       1.409       1.342    
        1.275       1.208       1.141       1.074       1.007      0.9398      0.8728      0.8057      0.7386      0.6716    
       0.6045      0.5374      0.4703      0.4032      0.3361      0.2690      0.2018      0.1347      6.7479E-02   0.000    
  98    10.00       9.934       9.867       9.800       9.733       9.666       9.598       9.531       9.463       9.397    
        9.330       9.263       9.196       9.129       9.061       8.994       8.927       8.860       8.793       8.726    
        8.659       8.592       8.525       8.458       8.391       8.324       8.256       8.189       8.122       8.055    
        7.988       7.921       7.854       7.787       7.719       7.652       7.585       7.518       7.451       7.384    
        7.317       7.250       7.183       7.116       7.049       6.981       6.914       6.847       6.780       6.713    
        6.646       6.579       6.512       6.445       6.377       6.310       6.243       6.176       6.109       6.042    
        5.975       5.908       5.841       5.774       5.706       5.639       5.572       5.505       5.438       5.371    
        5.304       5.237       5.169       5.102       5.035       4.968       4.901       4.834       4.767       4.700    
        4.633       4.565       4.498       4.431       4.364       4.297       4.230       4.162       4.095       4.028    
        3.961       3.894       3.827       3.760       3.692       3.625       3.558       3.491       3.424       3.357    
        3.289       3.222       3.155       3.088       3.021       2.954       2.886       2.819       2.752       2.685    
        2.618       2.551       2.484       2.416       2.349       2.282       2.215       2.148       2.081       2.013    
        1.946       1.879       1.812       1.745       1.678       1.611       1.544       1.476       1.409       1.342    
        1.275       1.208       1.141       1.074       1.007      0.9399      0.8728      0.8058      0.7387      0.6716    
       0.6046      0.5375      0.4704      0.4033      0.3362      0.2691      0.2019      0.1348      6.7612E-02   0.000    
  99    10.00       9.934       9.867       9.800       9.734       9.667       9.599       9.531       9.464       9.397    
        9.330       9.263       9.196       9.129       9.061       8.994       8.927       8.860       8.793       8.725    
        8.659       8.592       8.525       8.458       8.391       8.324       8.257       8.189       8.122       8.055    
        7.988       7.921       7.854       7.787       7.720       7.652       7.585       7.518       7.451       7.384    
        7.317       7.250       7.183       7.116       7.049       6.981       6.914       6.847       6.780       6.713    
        6.646       6.579       6.512       6.445       6.378       6.310       6.243       6.176       6.109       6.042    
        5.975       5.908       5.841       5.774       5.707       5.639       5.572       5.505       5.438       5.371    
        5.304       5.237       5.169       5.102       5.035       4.968       4.901       4.834       4.767       4.700    
        4.633       4.565       4.498       4.431       4.364       4.297       4.230       4.162       4.095       4.028    
        3.961       3.894       3.827       3.760       3.692       3.625       3.558       3.491       3.424       3.357    
        3.289       3.222       3.155       3.088       3.021       2.954       2.886       2.819       2.752       2.685    
        2.618       2.551       2.484       2.416       2.349       2.282       2.215       2.148       2.081       2.014    
        1.946       1.879       1.812       1.745       1.678       1.611       1.544       1.477       1.409       1.342    
        1.275       1.208       1.141       1.074       1.007      0.9400      0.8730      0.8059      0.7388      0.6718    
       0.6047      0.5377      0.4706      0.4035      0.3364      0.2693      0.2021      0.1350      6.7767E-02   0.000    
 100    10.00       9.934       9.867       9.800       9.733       9.666       9.599       9.532       9.464       9.397    
        9.330       9.263       9.196       9.129       9.062       8.994       8.927       8.860       8.793       8.726    
        8.659       8.592       8.525       8.458       8.391       8.324       8.257       8.189       8.122       8.055    
        7.988       7.921       7.854       7.787       7.720       7.653       7.585       7.518       7.451       7.384    
        7.317       7.250       7.183       7.116       7.049       6.982       6.914       6.847       6.780       6.713    
        6.646       6.579       6.512       6.445       6.378       6.311       6.243       6.176       6.109       6.042    
        5.975       5.908       5.841       5.774       5.707       5.639       5.572       5.505       5.438       5.371    
        5.304       5.237       5.169       5.102       5.035       4.968       4.901       4.834       4.767       4.700    
        4.633       4.565       4.498       4.431       4.364       4.297       4.230       4.162       4.095       4.028    
        3.961       3.894       3.827       3.760       3.692       3.625       3.558       3.491       3.424       3.357    
        3.289       3.222       3.155       3.088       3.021       2.954       2.886       2.819       2.752       2.685    
        2.618       2.551       2.484       2.416       2.349       2.282       2.215       2.148       2.081       2.014    
        1.946       1.879       1.812       1.745       1.678       1.611       1.544       1.477       1.410       1.342    
        1.275       1.208       1.141       1.074       1.007      0.9402      0.8732      0.8062      0.7391      0.6721    
       0.6051      0.5380      0.4710      0.4039      0.3368      0.2697      0.2025      0.1353      6.8040E-02   0.000    

 HEAD WILL BE SAVED ON UNIT   51 AT END OF TIME STEP    1, STRESS PERIOD    1
1
  VOLUMETRIC BUDGET FOR ENTIRE MODEL AT END OF TIME STEP    1, STRESS PERIOD   1
  ------------------------------------------------------------------------------

     CUMULATIVE VOLUMES      L**3       RATES FOR THIS TIME STEP      L**3/T
     ------------------                 ------------------------

           IN:                                      IN:
           ---                                      ---
             STORAGE =           0.0000               STORAGE =           0.0000
       CONSTANT HEAD =         312.7355         CONSTANT HEAD =         312.7355

            TOTAL IN =         312.7355              TOTAL IN =         312.7355

          OUT:                                     OUT:
          ----                                     ----
             STORAGE =           0.0000               STORAGE =           0.0000
       CONSTANT HEAD =         312.9755         CONSTANT HEAD =         312.9755

           TOTAL OUT =         312.9755             TOTAL OUT =         312.9755

            IN - OUT =          -0.2400              IN - OUT =          -0.2400

 PERCENT DISCREPANCY =          -0.08     PERCENT DISCREPANCY =          -0.08






         TIME SUMMARY AT END OF TIME STEP    1 IN STRESS PERIOD    1
                    SECONDS     MINUTES      HOURS       DAYS        YEARS
                    -----------------------------------------------------------
   TIME STEP LENGTH  86400.      1440.0      24.000      1.0000     2.73785E-03
 STRESS PERIOD TIME  86400.      1440.0      24.000      1.0000     2.73785E-03
         TOTAL TIME  86400.      1440.0      24.000      1.0000     2.73785E-03
1

 Run end date and time (yyyy/mm/dd hh:mm:ss): 2021/04/06  1:09:36
 Elapsed run time:  0.030 Seconds

