                                  MODFLOW-2005     
      U.S. GEOLOGICAL SURVEY MODULAR FINITE-DIFFERENCE GROUND-WATER FLOW MODEL
                            VERSION 1.12.00 2/3/2017

 LIST FILE: my_model2.list
                         UNIT    2

 OPENING my_model2.dis
 FILE TYPE:DIS   UNIT   11   STATUS:OLD    
 FORMAT:FORMATTED              ACCESS:SEQUENTIAL          

 OPENING my_model2.bas
 FILE TYPE:BAS6   UNIT   13   STATUS:OLD    
 FORMAT:FORMATTED              ACCESS:SEQUENTIAL          

 OPENING my_model2.riv
 FILE TYPE:RIV   UNIT   18   STATUS:OLD    
 FORMAT:FORMATTED              ACCESS:SEQUENTIAL          

 OPENING my_model2.lpf
 FILE TYPE:LPF   UNIT   15   STATUS:OLD    
 FORMAT:FORMATTED              ACCESS:SEQUENTIAL          

 OPENING my_model2.drn
 FILE TYPE:DRN   UNIT   21   STATUS:OLD    
 FORMAT:FORMATTED              ACCESS:SEQUENTIAL          

 OPENING my_model2.rch
 FILE TYPE:RCH   UNIT   19   STATUS:OLD    
 FORMAT:FORMATTED              ACCESS:SEQUENTIAL          

 OPENING my_model2.oc
 FILE TYPE:OC   UNIT   14   STATUS:OLD    
 FORMAT:FORMATTED              ACCESS:SEQUENTIAL          

 OPENING my_model2.pcg
 FILE TYPE:PCG   UNIT   27   STATUS:OLD    
 FORMAT:FORMATTED              ACCESS:SEQUENTIAL          

 OPENING my_model2.cbc
 FILE TYPE:DATA(BINARY)   UNIT    1   STATUS:REPLACE
 FORMAT:BINARY                 ACCESS:SEQUENTIAL          

 OPENING my_model2.hds
 FILE TYPE:DATA(BINARY)   UNIT   51   STATUS:REPLACE
 FORMAT:BINARY                 ACCESS:SEQUENTIAL          

 BAS -- BASIC PACKAGE, VERSION 7, 5/2/2005 INPUT READ FROM UNIT   13
 
 MODFLOW was compiled using mixed precision
 Precision of REAL variables:           6
 Precision of DOUBLE PRECISION variables:          15

 DISCRETIZATION INPUT DATA READ FROM UNIT   11
 # DIS package for  MODFLOW-2005, generated by Flopy.
    2 LAYERS       100 ROWS       150 COLUMNS
    1 STRESS PERIOD(S) IN SIMULATION
 MODEL TIME UNIT IS DAYS
 MODEL LENGTH UNIT IS FEET
  Confining bed flag for each layer:
   0   0

                     DELR =   2925.65    

                     DELC =   2727.60    



           TOP ELEVATION OF LAYER 1
 READING ON UNIT   11 WITH FORMAT: (150E15.6)          



             MODEL LAYER BOTTOM EL. FOR LAYER   1
 READING ON UNIT   11 WITH FORMAT: (150E15.6)          



             MODEL LAYER BOTTOM EL. FOR LAYER   2
 READING ON UNIT   11 WITH FORMAT: (150E15.6)          


 STRESS PERIOD     LENGTH       TIME STEPS     MULTIPLIER FOR DELT    SS FLAG
 ----------------------------------------------------------------------------
        1         1.000000          1                    1.000         SS

 STEADY-STATE SIMULATION



 
 # BAS6 package for  MODFLOW-2005, generated by Flopy.                           
 THE FREE FORMAT OPTION HAS BEEN SELECTED



                     BOUNDARY ARRAY FOR LAYER   1
 READING ON UNIT   13 WITH FORMAT: (150I10)            



                     BOUNDARY ARRAY FOR LAYER   2
 READING ON UNIT   13 WITH FORMAT: (150I10)            

 AQUIFER HEAD WILL BE SET TO  -999.99     AT ALL NO-FLOW NODES (IBOUND=0).

             INITIAL HEAD =   10000.0     FOR LAYER   1

             INITIAL HEAD =   10000.0     FOR LAYER   2
 # OC package for  MODFLOW-2005, generated by Flopy.

 OUTPUT CONTROL IS SPECIFIED ONLY AT TIME STEPS FOR WHICH OUTPUT IS DESIRED
 COMPACT CELL-BY-CELL BUDGET FILES WILL BE WRITTEN
 AUXILIARY DATA WILL BE SAVED IN CELL-BY-CELL BUDGET FILES
 HEAD PRINT FORMAT CODE IS   0    DRAWDOWN PRINT FORMAT CODE IS   0
 HEADS WILL BE SAVED ON UNIT   51    DRAWDOWNS WILL BE SAVED ON UNIT    0

 LPF -- LAYER-PROPERTY FLOW PACKAGE, VERSION 7, 5/2/2005
         INPUT READ FROM UNIT   15
 # LPF package for  MODFLOW-2005, generated by Flopy.
 CELL-BY-CELL FLOWS WILL BE SAVED ON UNIT    1
 HEAD AT CELLS THAT CONVERT TO DRY= -1.00000E+30
 No named parameters

   LAYER FLAGS:
 LAYER       LAYTYP        LAYAVG         CHANI        LAYVKA        LAYWET
 ---------------------------------------------------------------------------
    1             1             0     1.000E+00             0             0
    2             1             0     1.000E+00             0             0

   INTERPRETATION OF LAYER FLAGS:
                        INTERBLOCK     HORIZONTAL    DATA IN
         LAYER TYPE   TRANSMISSIVITY   ANISOTROPY   ARRAY VKA   WETTABILITY
 LAYER      (LAYTYP)      (LAYAVG)       (CHANI)      (LAYVKA)      (LAYWET)
 ---------------------------------------------------------------------------
    1   CONVERTIBLE      HARMONIC     1.000E+00    VERTICAL K  NON-WETTABLE
    2   CONVERTIBLE      HARMONIC     1.000E+00    VERTICAL K  NON-WETTABLE

 WETTING CAPABILITY IS NOT ACTIVE IN ANY LAYER



              HYD. COND. ALONG ROWS FOR LAYER   1
 READING ON UNIT   15 WITH FORMAT: (150E15.6)          



                VERTICAL HYD. COND. FOR LAYER   1
 READING ON UNIT   15 WITH FORMAT: (150E15.6)          



              HYD. COND. ALONG ROWS FOR LAYER   2
 READING ON UNIT   15 WITH FORMAT: (150E15.6)          



                VERTICAL HYD. COND. FOR LAYER   2
 READING ON UNIT   15 WITH FORMAT: (150E15.6)          

 DRN -- DRAIN PACKAGE, VERSION 7, 5/2/2005 INPUT READ FROM UNIT   21
 # DRN package for  MODFLOW-2005, generated by Flopy.
 No named parameters
 MAXIMUM OF  12086 ACTIVE DRAINS AT ONE TIME


     0 Drain parameters

 RIV -- RIVER PACKAGE, VERSION 7, 5/2/2005 INPUT READ FROM UNIT   18
 # RIV package for  MODFLOW-2005, generated by Flopy.
 No named parameters
 MAXIMUM OF    740 ACTIVE RIVER REACHES AT ONE TIME


     0 River parameters

 RCH -- RECHARGE PACKAGE, VERSION 7, 5/2/2005 INPUT READ FROM UNIT   19
 # RCH package for  MODFLOW-2005, generated by Flopy.
 No named parameters
 OPTION 3 -- RECHARGE TO HIGHEST ACTIVE NODE IN EACH VERTICAL COLUMN


     0 Recharge parameters

 PCG -- CONJUGATE-GRADIENT SOLUTION PACKAGE, VERSION 7, 5/2/2005
 # PCG package for  MODFLOW-2005, generated by Flopy.
 MAXIMUM OF     50 CALLS OF SOLUTION ROUTINE
 MAXIMUM OF     30 INTERNAL ITERATIONS PER CALL TO SOLUTION ROUTINE
 MATRIX PRECONDITIONING TYPE :    1



                                    SOLUTION BY THE CONJUGATE-GRADIENT METHOD
                                   -------------------------------------------
                    MAXIMUM NUMBER OF CALLS TO PCG ROUTINE =       50
                        MAXIMUM ITERATIONS PER CALL TO PCG =       30
                               MATRIX PRECONDITIONING TYPE =        1
        RELAXATION FACTOR (ONLY USED WITH PRECOND. TYPE 1) =    0.10000E+01
 PARAMETER OF POLYNOMIAL PRECOND. = 2 (2) OR IS CALCULATED :        0
                         HEAD CHANGE CRITERION FOR CLOSURE =    0.10000E-04
                     RESIDUAL CHANGE CRITERION FOR CLOSURE =    0.10000E-04
            PCG HEAD AND RESIDUAL CHANGE PRINTOUT INTERVAL =      999
     PRINTING FROM SOLVER IS LIMITED(1) OR SUPPRESSED (>1) =        3
                            STEADY-STATE DAMPING PARAMETER =    0.10000E+01
                               TRANSIENT DAMPING PARAMETER =    0.10000E+01
1
                            STRESS PERIOD NO.    1, LENGTH =   1.000000    
                            -----------------------------------------------

                              NUMBER OF TIME STEPS =     1

                               MULTIPLIER FOR DELT =     1.000

                            INITIAL TIME STEP SIZE =   1.000000    

 DRAIN NO.  LAYER   ROW   COL     DRAIN EL.  CONDUCTANCE         
 ----------------------------------------------------------------
      1      1      1      1       673.4           100.0    
      2      1      1      2       669.2           100.0    
      3      1      1      3       665.9           100.0    
      4      1      1      4       649.5           100.0    
      5      1      1      5       660.2           100.0    
      6      1      1      6       627.2           100.0    
      7      1      1      7       652.1           100.0    
      8      1      1      8       650.4           100.0    
      9      1      1      9       674.6           100.0    
     10      1      1     10       645.9           100.0    
     11      1      1     11       677.8           100.0    
     12      1      1     12       646.7           100.0    
     13      1      1     13       676.3           100.0    
     14      1      1     14       662.9           100.0    
     15      1      1     15       659.1           100.0    
     16      1      1     16       644.8           100.0    
     17      1      1     25       556.7           100.0    
     18      1      1     26       602.4           100.0    
     19      1      1     27       590.1           100.0    
     20      1      1     28       575.0           100.0    
     21      1      1     29       611.3           100.0    
     22      1      1     30       640.1           100.0    
     23      1      1     31       660.7           100.0    
     24      1      1     32       691.5           100.0    
     25      1      1     33       687.6           100.0    
     26      1      1     34       678.0           100.0    
     27      1      1     35       608.1           100.0    
     28      1      1     36       677.8           100.0    
     29      1      1     37       605.8           100.0    
     30      1      1     38       641.8           100.0    
     31      1      1     39       672.9           100.0    
     32      1      1     40       673.7           100.0    
     33      1      1     41       629.1           100.0    
     34      1      1     42       699.7           100.0    
     35      1      1     43       709.8           100.0    
     36      1      1     44       732.9           100.0    
     37      1      1     45       733.9           100.0    
     38      1      1     46       713.8           100.0    
     39      1      1     47       690.7           100.0    
     40      1      1     48       711.5           100.0    
     41      1      1     49       711.1           100.0    
     42      1      1     50       735.9           100.0    
     43      1      1     51       686.2           100.0    
     44      1      1     52       709.4           100.0    
     45      1      1     53       724.2           100.0    
     46      1      1     54       730.3           100.0    
     47      1      1     55       698.1           100.0    
     48      1      1     56       689.0           100.0    
     49      1      1     57       693.0           100.0    
     50      1      1     58       685.7           100.0    
     51      1      1     59       704.2           100.0    
     52      1      1     60       682.9           100.0    
     53      1      1     61       665.5           100.0    
     54      1      1     62       671.9           100.0    
     55      1      1     63       720.2           100.0    
     56      1      1     64       680.6           100.0    
     57      1      1     65       680.8           100.0    
     58      1      1     66       717.0           100.0    
     59      1      1     71       672.1           100.0    
     60      1      1     72       685.8           100.0    
     61      1      2      1       655.3           100.0    
     62      1      2      2       668.3           100.0    
     63      1      2      3       643.9           100.0    
     64      1      2      4       597.6           100.0    
     65      1      2      5       580.0           100.0    
     66      1      2      6       617.4           100.0    
     67      1      2      7       672.4           100.0    
     68      1      2      8       640.2           100.0    
     69      1      2      9       641.3           100.0    
     70      1      2     10       647.4           100.0    
     71      1      2     11       635.9           100.0    
     72      1      2     12       661.1           100.0    
     73      1      2     13       652.4           100.0    
     74      1      2     14       658.4           100.0    
     75      1      2     15       533.7           100.0    
     76      1      2     16       532.4           100.0    
     77      1      2     25       603.2           100.0    
     78      1      2     26       589.6           100.0    
     79      1      2     27       631.8           100.0    
     80      1      2     28       624.1           100.0    
     81      1      2     29       638.2           100.0    
     82      1      2     30       649.7           100.0    
     83      1      2     31       659.7           100.0    
     84      1      2     32       683.3           100.0    
     85      1      2     33       671.7           100.0    
     86      1      2     34       683.7           100.0    
     87      1      2     35       668.2           100.0    
     88      1      2     36       670.1           100.0    
     89      1      2     37       752.7           100.0    
     90      1      2     38       663.2           100.0    
     91      1      2     39       699.8           100.0    
     92      1      2     40       718.3           100.0    
     93      1      2     41       663.0           100.0    
     94      1      2     42       701.4           100.0    
     95      1      2     43       714.4           100.0    
     96      1      2     44       758.6           100.0    
     97      1      2     45       728.2           100.0    
     98      1      2     46       663.9           100.0    
     99      1      2     47       709.1           100.0    
    100      1      2     48       723.0           100.0    
    101      1      2     49       737.4           100.0    
    102      1      2     50       680.3           100.0    
    103      1      2     51       718.3           100.0    
    104      1      2     52       730.9           100.0    
    105      1      2     53       747.1           100.0    
    106      1      2     54       733.0           100.0    
    107      1      2     55       699.7           100.0    
    108      1      2     56       719.1           100.0    
    109      1      2     57       708.4           100.0    
    110      1      2     58       692.8           100.0    
    111      1      2     59       699.8           100.0    
    112      1      2     60       703.1           100.0    
    113      1      2     61       680.2           100.0    
    114      1      2     62       700.2           100.0    
    115      1      2     63       730.0           100.0    
    116      1      2     64       673.9           100.0    
    117      1      2     65       721.3           100.0    
    118      1      2     66       707.3           100.0    
    119      1      2     71       698.0           100.0    
    120      1      2     72       724.2           100.0    
    121      1      2     67       594.2           100.0    
    122      1      2     68       651.8           100.0    
    123      1      2     69       653.4           100.0    
    124      1      2     70       622.8           100.0    
    125      1      2     73       694.3           100.0    
    126      1      2     74       662.8           100.0    
    127      1      2     75       565.7           100.0    
    128      1      2     76       609.0           100.0    
    129      1      2     77       586.7           100.0    
    130      1      3      1       649.3           100.0    
    131      1      3      2       669.4           100.0    
    132      1      3      3       665.1           100.0    
    133      1      3      4       652.4           100.0    
    134      1      3      5       610.3           100.0    
    135      1      3      6       574.9           100.0    
    136      1      3      7       632.4           100.0    
    137      1      3      8       626.0           100.0    
    138      1      3      9       635.7           100.0    
    139      1      3     10       622.9           100.0    
    140      1      3     11       643.0           100.0    
    141      1      3     12       602.9           100.0    
    142      1      3     13       648.0           100.0    
    143      1      3     14       635.0           100.0    
    144      1      3     25       630.3           100.0    
    145      1      3     26       628.7           100.0    
    146      1      3     27       634.2           100.0    
    147      1      3     28       635.8           100.0    
    148      1      3     29       644.6           100.0    
    149      1      3     30       597.9           100.0    
    150      1      3     31       649.8           100.0    
    151      1      3     32       681.5           100.0    
    152      1      3     33       693.3           100.0    
    153      1      3     34       698.4           100.0    
    154      1      3     35       704.7           100.0    
    155      1      3     36       715.5           100.0    
    156      1      3     37       722.9           100.0    
    157      1      3     38       719.8           100.0    
    158      1      3     39       712.4           100.0    
    159      1      3     40       713.4           100.0    
    160      1      3     41       704.4           100.0    
    161      1      3     42       660.3           100.0    
    162      1      3     43       709.1           100.0    
    163      1      3     51       701.6           100.0    
    164      1      3     52       736.8           100.0    
    165      1      3     53       750.2           100.0    
    166      1      3     54       727.5           100.0    
    167      1      3     55       722.2           100.0    
    168      1      3     56       688.2           100.0    
    169      1      3     57       739.7           100.0    
    170      1      3     58       691.4           100.0    
    171      1      3     59       723.0           100.0    
    172      1      3     60       719.7           100.0    
    173      1      3     61       700.7           100.0    
    174      1      3     62       670.2           100.0    
    175      1      3     63       736.8           100.0    
    176      1      3     64       742.0           100.0    
    177      1      3     65       738.8           100.0    
    178      1      3     66       702.8           100.0    
    179      1      3     67       595.4           100.0    
    180      1      3     68       583.6           100.0    
    181      1      3     69       675.0           100.0    
    182      1      3     70       633.6           100.0    
    183      1      3     71       700.2           100.0    
    184      1      3     72       722.8           100.0    
    185      1      3     73       709.7           100.0    
    186      1      3     74       705.9           100.0    
    187      1      3     75       649.7           100.0    
    188      1      3     76       573.7           100.0    
    189      1      3     77       614.6           100.0    
    190      1      4      1       628.6           100.0    
    191      1      4      2       618.4           100.0    
    192      1      4      3       650.6           100.0    
    193      1      4      4       644.4           100.0    
    194      1      4      5       625.6           100.0    
    195      1      4      6       570.8           100.0    
    196      1      4      7       571.5           100.0    
    197      1      4      8       631.9           100.0    
    198      1      4      9       602.1           100.0    
    199      1      4     10       603.1           100.0    
    200      1      4     11       626.2           100.0    
    201      1      4     12       639.1           100.0    
    202      1      4     13       644.2           100.0    
    203      1      4     14       639.0           100.0    
    204      1      4     25       630.1           100.0    
    205      1      4     26       625.6           100.0    
    206      1      4     27       612.6           100.0    
    207      1      4     28       625.7           100.0    
    208      1      4     29       607.3           100.0    
    209      1      4     30       634.6           100.0    
    210      1      4     31       648.7           100.0    
    211      1      4     32       645.3           100.0    
    212      1      4     33       677.2           100.0    
    213      1      4     34       684.8           100.0    
    214      1      4     35       702.6           100.0    
    215      1      4     36       720.9           100.0    
    216      1      4     37       735.8           100.0    
    217      1      4     38       730.0           100.0    
    218      1      4     39       719.8           100.0    
    219      1      4     40       719.5           100.0    
    220      1      4     41       719.3           100.0    
    221      1      4     42       708.5           100.0    
    222      1      4     43       730.9           100.0    
    223      1      4     51       719.1           100.0    
    224      1      4     52       759.9           100.0    
    225      1      4     53       751.4           100.0    
    226      1      4     54       731.1           100.0    
    227      1      4     55       740.5           100.0    
    228      1      4     56       689.2           100.0    
    229      1      4     57       751.9           100.0    
    230      1      4     58       741.6           100.0    
    231      1      4     59       741.0           100.0    
    232      1      4     60       740.6           100.0    
    233      1      4     61       722.6           100.0    
    234      1      4     62       739.0           100.0    
    235      1      4     63       739.4           100.0    
    236      1      4     64       745.1           100.0    
    237      1      4     65       719.6           100.0    
    238      1      4     66       647.1           100.0    
    239      1      4     67       710.9           100.0    
    240      1      4     68       651.0           100.0    
    241      1      4     69       683.9           100.0    
    242      1      4     70       721.4           100.0    
    243      1      4     71       711.4           100.0    
    244      1      4     72       706.3           100.0    
    245      1      4     73       711.6           100.0    
    246      1      4     74       703.3           100.0    
    247      1      4     75       687.6           100.0    
    248      1      4     76       700.2           100.0    
    249      1      4     77       698.5           100.0    
    250      1      5      1       605.5           100.0    
    251      1      5      2       593.7           100.0    
    252      1      5      3       644.9           100.0    
    253      1      5      4       645.6           100.0    
    254      1      5      5       626.4           100.0    
    255      1      5      6       589.1           100.0    
    256      1      5      7       566.2           100.0    
    257      1      5      8       564.7           100.0    
    258      1      5      9       563.7           100.0    
    259      1      5     10       614.4           100.0    
    260      1      5     11       554.2           100.0    
    261      1      5     12       554.1           100.0    
    262      1      5     13       614.8           100.0    
    263      1      5     14       581.4           100.0    
    264      1      5     25       559.7           100.0    
    265      1      5     26       574.0           100.0    
    266      1      5     27       630.4           100.0    
    267      1      5     28       643.4           100.0    
    268      1      5     29       653.2           100.0    
    269      1      5     30       667.0           100.0    
    270      1      5     31       660.4           100.0    
    271      1      5     32       659.5           100.0    
    272      1      5     33       682.3           100.0    
    273      1      5     34       700.5           100.0    
    274      1      5     35       710.8           100.0    
    275      1      5     36       710.9           100.0    
    276      1      5     37       703.1           100.0    
    277      1      5     38       695.3           100.0    
    278      1      5     39       710.0           100.0    
    279      1      5     40       732.1           100.0    
    280      1      5     41       727.7           100.0    
    281      1      5     42       721.3           100.0    
    282      1      5     43       732.3           100.0    
    283      1      5     51       756.9           100.0    
    284      1      5     52       764.1           100.0    
    285      1      5     53       768.7           100.0    
    286      1      5     54       759.8           100.0    
    287      1      5     55       744.8           100.0    
    288      1      5     56       749.1           100.0    
    289      1      5     57       750.8           100.0    
    290      1      5     58       745.6           100.0    
    291      1      5     59       734.5           100.0    
    292      1      5     60       731.3           100.0    
    293      1      5     61       721.2           100.0    
    294      1      5     62       738.6           100.0    
    295      1      5     63       740.4           100.0    
    296      1      5     64       729.8           100.0    
    297      1      5     65       723.3           100.0    
    298      1      5     66       720.8           100.0    
    299      1      5     67       715.7           100.0    
    300      1      5     68       701.8           100.0    
    301      1      5     69       681.8           100.0    
    302      1      5     70       733.9           100.0    
    303      1      5     71       720.2           100.0    
    304      1      5     72       659.5           100.0    
    305      1      5     73       708.2           100.0    
    306      1      5     74       680.6           100.0    
    307      1      5     75       697.3           100.0    
    308      1      5     76       702.6           100.0    
    309      1      5     77       690.1           100.0    
    310      1      6      1       653.4           100.0    
    311      1      6      2       612.8           100.0    
    312      1      6      3       616.5           100.0    
    313      1      6      4       579.8           100.0    
    314      1      6      5       629.6           100.0    
    315      1      6      6       573.3           100.0    
    316      1      6      7       632.2           100.0    
    317      1      6      8       636.9           100.0    
    318      1      6      9       633.6           100.0    
    319      1      6     10       638.5           100.0    
    320      1      6     11       597.6           100.0    
    321      1      6     12       558.0           100.0    
    322      1      6     13       591.2           100.0    
    323      1      6     14       538.7           100.0    
    324      1      6     25       612.2           100.0    
    325      1      6     26       586.1           100.0    
    326      1      6     27       626.3           100.0    
    327      1      6     28       640.3           100.0    
    328      1      6     29       656.0           100.0    
    329      1      6     30       668.0           100.0    
    330      1      6     31       678.6           100.0    
    331      1      6     32       682.0           100.0    
    332      1      6     33       662.5           100.0    
    333      1      6     34       669.5           100.0    
    334      1      6     35       678.9           100.0    
    335      1      6     36       658.0           100.0    
    336      1      6     37       726.9           100.0    
    337      1      6     38       729.4           100.0    
    338      1      6     39       731.7           100.0    
    339      1      6     40       736.6           100.0    
    340      1      6     41       733.0           100.0    
    341      1      6     42       734.6           100.0    
    342      1      6     43       759.4           100.0    
    343      1      6     51       773.6           100.0    
    344      1      6     52       782.7           100.0    
    345      1      6     53       750.7           100.0    
    346      1      6     54       732.6           100.0    
    347      1      6     55       749.7           100.0    
    348      1      6     56       739.8           100.0    
    349      1      6     57       740.3           100.0    
    350      1      6     58       729.8           100.0    
    351      1      6     59       722.0           100.0    
    352      1      6     60       724.1           100.0    
    353      1      6     61       700.2           100.0    
    354      1      6     62       724.7           100.0    
    355      1      6     63       721.1           100.0    
    356      1      6     64       732.7           100.0    
    357      1      6     65       726.3           100.0    
    358      1      6     66       728.7           100.0    
    359      1      6     67       723.8           100.0    
    360      1      6     68       701.8           100.0    
    361      1      6     69       708.6           100.0    
    362      1      6     70       720.5           100.0    
    363      1      6     71       688.2           100.0    
    364      1      6     72       662.8           100.0    
    365      1      6     73       688.2           100.0    
    366      1      6     74       691.3           100.0    
    367      1      6     75       690.8           100.0    
    368      1      7      1       648.6           100.0    
    369      1      7      2       618.2           100.0    
    370      1      7      3       603.0           100.0    
    371      1      7      4       593.1           100.0    
    372      1      7      5       612.2           100.0    
    373      1      7      6       630.3           100.0    
    374      1      7      7       599.7           100.0    
    375      1      7      8       628.2           100.0    
    376      1      7      9       633.2           100.0    
    377      1      7     10       635.3           100.0    
    378      1      7     11       635.0           100.0    
    379      1      7     12       554.7           100.0    
    380      1      7     13       552.2           100.0    
    381      1      7     14       549.6           100.0    
    382      1      7     25       633.4           100.0    
    383      1      7     26       633.6           100.0    
    384      1      7     27       651.1           100.0    
    385      1      7     28       660.0           100.0    
    386      1      7     29       670.6           100.0    
    387      1      7     30       630.8           100.0    
    388      1      7     31       658.7           100.0    
    389      1      7     32       602.3           100.0    
    390      1      7     33       618.0           100.0    
    391      1      7     34       641.6           100.0    
    392      1      7     35       655.1           100.0    
    393      1      7     36       721.8           100.0    
    394      1      7     37       721.0           100.0    
    395      1      7     38       732.7           100.0    
    396      1      7     39       735.4           100.0    
    397      1      7     40       746.1           100.0    
    398      1      7     41       745.2           100.0    
    399      1      7     42       762.3           100.0    
    400      1      7     43       766.3           100.0    
    401      1      7     51       782.1           100.0    
    402      1      7     52       749.3           100.0    
    403      1      7     53       754.3           100.0    
    404      1      7     54       733.3           100.0    
    405      1      7     55       740.9           100.0    
    406      1      7     56       729.5           100.0    
    407      1      7     57       718.9           100.0    
    408      1      7     58       721.0           100.0    
    409      1      7     59       682.5           100.0    
    410      1      7     60       704.7           100.0    
    411      1      7     61       702.9           100.0    
    412      1      7     62       714.3           100.0    
    413      1      7     63       719.7           100.0    
    414      1      7     64       708.5           100.0    
    415      1      7     65       715.1           100.0    
    416      1      7     66       724.3           100.0    
    417      1      7     67       720.5           100.0    
    418      1      7     68       697.8           100.0    
    419      1      7     69       700.3           100.0    
    420      1      7     70       701.2           100.0    
    421      1      7     71       683.3           100.0    
    422      1      7     72       630.6           100.0    
    423      1      7     73       681.4           100.0    
    424      1      7     74       628.5           100.0    
    425      1      7     75       629.4           100.0    
    426      1      8      1       694.3           100.0    
    427      1      8      2       599.0           100.0    
    428      1      8      3       586.1           100.0    
    429      1      8      4       645.3           100.0    
    430      1      8      5       637.9           100.0    
    431      1      8      6       636.7           100.0    
    432      1      8      7       622.2           100.0    
    433      1      8      8       635.2           100.0    
    434      1      8      9       637.3           100.0    
    435      1      8     10       637.3           100.0    
    436      1      8     11       622.7           100.0    
    437      1      8     12       644.9           100.0    
    438      1      8     13       559.2           100.0    
    439      1      8     14       670.8           100.0    
    440      1      8     25       643.8           100.0    
    441      1      8     26       660.4           100.0    
    442      1      8     27       568.2           100.0    
    443      1      8     28       563.4           100.0    
    444      1      8     29       570.3           100.0    
    445      1      8     30       657.2           100.0    
    446      1      8     31       671.5           100.0    
    447      1      8     32       597.1           100.0    
    448      1      8     33       702.8           100.0    
    449      1      8     34       700.0           100.0    
    450      1      8     35       709.8           100.0    
    451      1      8     36       716.0           100.0    
    452      1      8     37       730.5           100.0    
    453      1      8     38       737.1           100.0    
    454      1      8     39       721.9           100.0    
    455      1      8     40       739.7           100.0    
    456      1      8     41       751.0           100.0    
    457      1      8     42       766.9           100.0    
    458      1      8     43       762.2           100.0    
    459      1      8     51       763.8           100.0    
    460      1      8     52       744.8           100.0    
    461      1      8     53       707.1           100.0    
    462      1      8     54       722.0           100.0    
    463      1      8     55       717.0           100.0    
    464      1      8     56       711.4           100.0    
    465      1      8     57       710.7           100.0    
    466      1      8     58       708.7           100.0    
    467      1      8     59       705.7           100.0    
    468      1      8     60       699.2           100.0    
    469      1      8     61       637.9           100.0    
    470      1      8     62       623.9           100.0    
    471      1      8     63       719.0           100.0    
    472      1      8     64       687.2           100.0    
    473      1      8     65       684.3           100.0    
    474      1      8     66       720.9           100.0    
    475      1      8     67       710.4           100.0    
    476      1      8     68       667.5           100.0    
    477      1      8     69       610.6           100.0    
    478      1      8     70       682.4           100.0    
    479      1      8     71       653.0           100.0    
    480      1      8     72       600.2           100.0    
    481      1      8     73       670.2           100.0    
    482      1      8     74       606.8           100.0    
    483      1      8     75       629.2           100.0    
    484      1      8     44       760.8           100.0    
    485      1      8     45       754.2           100.0    
    486      1      9      1       691.5           100.0    
    487      1      9      2       667.7           100.0    
    488      1      9      3       637.9           100.0    
    489      1      9      4       651.9           100.0    
    490      1      9      5       641.6           100.0    
    491      1      9      6       636.0           100.0    
    492      1      9      7       638.5           100.0    
    493      1      9      8       619.8           100.0    
    494      1      9      9       639.6           100.0    
    495      1      9     10       638.9           100.0    
    496      1      9     11       639.3           100.0    
    497      1      9     12       647.8           100.0    
    498      1      9     13       648.7           100.0    
    499      1      9     14       671.0           100.0    
    500      1      9     25       565.2           100.0    
    501      1      9     26       555.8           100.0    
    502      1      9     27       595.7           100.0    
    503      1      9     28       674.3           100.0    
    504      1      9     29       707.2           100.0    
    505      1      9     30       639.3           100.0    
    506      1      9     31       705.6           100.0    
    507      1      9     32       717.1           100.0    
    508      1      9     33       734.0           100.0    
    509      1      9     34       715.0           100.0    
    510      1      9     35       671.3           100.0    
    511      1      9     36       720.7           100.0    
    512      1      9     37       712.6           100.0    
    513      1      9     38       734.9           100.0    
    514      1      9     39       741.1           100.0    
    515      1      9     40       752.3           100.0    
    516      1      9     41       762.3           100.0    
    517      1      9     42       768.9           100.0    
    518      1      9     43       770.3           100.0    
    519      1      9     44       770.0           100.0    
    520      1      9     45       763.1           100.0    
    521      1      9     53       721.5           100.0    
    522      1      9     54       717.9           100.0    
    523      1      9     55       709.2           100.0    
    524      1      9     56       704.2           100.0    
    525      1      9     57       712.0           100.0    
    526      1      9     58       699.9           100.0    
    527      1      9     59       687.5           100.0    
    528      1      9     60       616.3           100.0    
    529      1      9     61       627.4           100.0    
    530      1      9     62       701.1           100.0    
    531      1      9     63       700.9           100.0    
    532      1      9     64       629.9           100.0    
    533      1      9     65       702.7           100.0    
    534      1      9     66       715.6           100.0    
    535      1      9     67       692.1           100.0    
    536      1      9     68       693.6           100.0    
    537      1      9     69       657.5           100.0    
    538      1      9     70       639.5           100.0    
    539      1      9     71       586.4           100.0    
    540      1      9     72       603.6           100.0    
    541      1      9     73       652.4           100.0    
    542      1      9     74       631.5           100.0    
    543      1      9     75       551.6           100.0    
    544      1     10      1       692.9           100.0    
    545      1     10      2       683.6           100.0    
    546      1     10      3       696.6           100.0    
    547      1     10      4       660.2           100.0    
    548      1     10      5       649.0           100.0    
    549      1     10      6       613.5           100.0    
    550      1     10      7       638.5           100.0    
    551      1     10      8       640.0           100.0    
    552      1     10      9       635.7           100.0    
    553      1     10     10       643.9           100.0    
    554      1     10     11       657.2           100.0    
    555      1     10     12       663.5           100.0    
    556      1     10     13       647.8           100.0    
    557      1     10     14       627.6           100.0    
    558      1     10     25       611.2           100.0    
    559      1     10     26       659.9           100.0    
    560      1     10     27       683.0           100.0    
    561      1     10     28       680.3           100.0    
    562      1     10     29       709.2           100.0    
    563      1     10     30       675.7           100.0    
    564      1     10     31       729.7           100.0    
    565      1     10     32       731.4           100.0    
    566      1     10     33       709.0           100.0    
    567      1     10     34       639.9           100.0    
    568      1     10     35       653.7           100.0    
    569      1     10     36       734.2           100.0    
    570      1     10     37       728.8           100.0    
    571      1     10     38       739.4           100.0    
    572      1     10     39       751.1           100.0    
    573      1     10     40       757.0           100.0    
    574      1     10     41       776.7           100.0    
    575      1     10     42       776.0           100.0    
    576      1     10     43       771.9           100.0    
    577      1     10     44       761.6           100.0    
    578      1     10     45       757.1           100.0    
    579      1     10     53       720.4           100.0    
    580      1     10     54       705.3           100.0    
    581      1     10     55       705.0           100.0    
    582      1     10     56       704.7           100.0    
    583      1     10     57       708.9           100.0    
    584      1     10     58       705.1           100.0    
    585      1     10     59       654.2           100.0    
    586      1     10     60       688.3           100.0    
    587      1     10     61       579.0           100.0    
    588      1     10     62       698.4           100.0    
    589      1     10     63       683.2           100.0    
    590      1     10     64       647.1           100.0    
    591      1     10     65       700.2           100.0    
    592      1     10     66       700.3           100.0    
    593      1     10     67       680.0           100.0    
    594      1     10     68       686.8           100.0    
    595      1     10     69       681.0           100.0    
    596      1     10     70       574.9           100.0    
    597      1     10     71       642.8           100.0    
    598      1     10     72       582.2           100.0    
    599      1     10     73       656.6           100.0    
    600      1     10     74       634.8           100.0    
    601      1     10     75       607.3           100.0    
    602      1     10     46       753.8           100.0    
    603      1     10     47       745.9           100.0    
    604      1     10     48       717.2           100.0    
    605      1     10     76       639.7           100.0    
    606      1     10     77       634.4           100.0    
    607      1     11      1       675.7           100.0    
    608      1     11      2       693.7           100.0    
    609      1     11      3       707.3           100.0    
    610      1     11      4       661.7           100.0    
    611      1     11      5       647.6           100.0    
    612      1     11      6       641.1           100.0    
    613      1     11      7       636.0           100.0    
    614      1     11      8       646.4           100.0    
    615      1     11      9       647.0           100.0    
    616      1     11     10       652.4           100.0    
    617      1     11     11       665.9           100.0    
    618      1     11     12       631.6           100.0    
    619      1     11     13       630.4           100.0    
    620      1     11     14       630.5           100.0    
    621      1     11     25       672.3           100.0    
    622      1     11     26       703.1           100.0    
    623      1     11     27       645.3           100.0    
    624      1     11     28       672.8           100.0    
    625      1     11     29       721.2           100.0    
    626      1     11     30       702.5           100.0    
    627      1     11     31       679.1           100.0    
    628      1     11     32       738.4           100.0    
    629      1     11     33       737.7           100.0    
    630      1     11     34       718.8           100.0    
    631      1     11     35       724.2           100.0    
    632      1     11     36       747.0           100.0    
    633      1     11     37       749.2           100.0    
    634      1     11     38       753.9           100.0    
    635      1     11     39       745.5           100.0    
    636      1     11     40       753.2           100.0    
    637      1     11     41       771.3           100.0    
    638      1     11     42       759.3           100.0    
    639      1     11     43       761.6           100.0    
    640      1     11     44       742.6           100.0    
    641      1     11     45       734.4           100.0    
    642      1     11     46       740.4           100.0    
    643      1     11     47       658.3           100.0    
    644      1     11     48       699.3           100.0    
    645      1     11     54       686.7           100.0    
    646      1     11     55       700.8           100.0    
    647      1     11     56       700.5           100.0    
    648      1     11     57       666.9           100.0    
    649      1     11     58       685.4           100.0    
    650      1     11     59       678.2           100.0    
    651      1     11     60       592.7           100.0    
    652      1     11     61       669.4           100.0    
    653      1     11     62       673.1           100.0    
    654      1     11     63       660.0           100.0    
    655      1     11     64       665.0           100.0    
    656      1     11     65       665.4           100.0    
    657      1     11     66       671.5           100.0    
    658      1     11     67       641.7           100.0    
    659      1     11     68       646.7           100.0    
    660      1     11     69       653.6           100.0    
    661      1     11     70       630.8           100.0    
    662      1     11     71       617.7           100.0    
    663      1     11     72       585.4           100.0    
    664      1     11     73       631.6           100.0    
    665      1     11     74       620.7           100.0    
    666      1     11     75       617.2           100.0    
    667      1     11     76       597.4           100.0    
    668      1     11     77       636.3           100.0    
    669      1     12      1       687.6           100.0    
    670      1     12      2       722.9           100.0    
    671      1     12      3       716.8           100.0    
    672      1     12      4       654.4           100.0    
    673      1     12      5       644.8           100.0    
    674      1     12      6       645.5           100.0    
    675      1     12      7       639.6           100.0    
    676      1     12      8       652.2           100.0    
    677      1     12      9       640.9           100.0    
    678      1     12     10       637.1           100.0    
    679      1     12     11       644.3           100.0    
    680      1     12     12       642.7           100.0    
    681      1     12     13       630.0           100.0    
    682      1     12     14       622.8           100.0    
    683      1     12     25       632.7           100.0    
    684      1     12     26       609.7           100.0    
    685      1     12     27       700.5           100.0    
    686      1     12     28       678.7           100.0    
    687      1     12     29       705.7           100.0    
    688      1     12     30       722.4           100.0    
    689      1     12     31       729.7           100.0    
    690      1     12     32       747.0           100.0    
    691      1     12     33       761.6           100.0    
    692      1     12     34       733.3           100.0    
    693      1     12     35       750.0           100.0    
    694      1     12     36       752.4           100.0    
    695      1     12     37       753.6           100.0    
    696      1     12     38       757.7           100.0    
    697      1     12     39       764.6           100.0    
    698      1     12     40       776.8           100.0    
    699      1     12     41       769.5           100.0    
    700      1     12     42       754.5           100.0    
    701      1     12     43       739.5           100.0    
    702      1     12     44       695.7           100.0    
    703      1     12     45       730.4           100.0    
    704      1     12     46       734.6           100.0    
    705      1     12     47       671.5           100.0    
    706      1     12     48       711.4           100.0    
    707      1     12     54       693.1           100.0    
    708      1     12     55       691.4           100.0    
    709      1     12     56       689.7           100.0    
    710      1     12     57       629.9           100.0    
    711      1     12     58       671.1           100.0    
    712      1     12     59       637.8           100.0    
    713      1     12     60       635.4           100.0    
    714      1     12     61       638.2           100.0    
    715      1     12     62       655.9           100.0    
    716      1     12     63       643.3           100.0    
    717      1     12     64       653.9           100.0    
    718      1     12     65       601.5           100.0    
    719      1     12     66       648.5           100.0    
    720      1     12     67       641.6           100.0    
    721      1     12     68       638.9           100.0    
    722      1     12     69       663.8           100.0    
    723      1     12     70       640.5           100.0    
    724      1     12     71       567.3           100.0    
    725      1     12     72       621.7           100.0    
    726      1     12     73       631.4           100.0    
    727      1     12     74       635.6           100.0    
    728      1     12     75       546.8           100.0    
    729      1     12     76       631.2           100.0    
    730      1     12     77       637.9           100.0    
    731      1     12     23       650.2           100.0    
    732      1     12     24       654.7           100.0    
    733      1     12     78       629.1           100.0    
    734      1     13      1       690.9           100.0    
    735      1     13      2       708.2           100.0    
    736      1     13      3       690.1           100.0    
    737      1     13      4       650.7           100.0    
    738      1     13      5       639.8           100.0    
    739      1     13      6       622.7           100.0    
    740      1     13      7       642.9           100.0    
    741      1     13      8       667.0           100.0    
    742      1     13      9       630.3           100.0    
    743      1     13     10       586.8           100.0    
    744      1     13     11       574.6           100.0    
    745      1     13     12       629.7           100.0    
    746      1     13     13       628.5           100.0    
    747      1     13     14       587.1           100.0    
    748      1     13     23       610.6           100.0    
    749      1     13     24       681.5           100.0    
    750      1     13     25       656.9           100.0    
    751      1     13     26       702.4           100.0    
    752      1     13     27       709.2           100.0    
    753      1     13     28       702.8           100.0    
    754      1     13     29       723.0           100.0    
    755      1     13     30       732.7           100.0    
    756      1     13     31       734.8           100.0    
    757      1     13     32       738.8           100.0    
    758      1     13     33       743.6           100.0    
    759      1     13     34       745.1           100.0    
    760      1     13     35       749.3           100.0    
    761      1     13     36       746.0           100.0    
    762      1     13     37       746.8           100.0    
    763      1     13     38       752.9           100.0    
    764      1     13     39       757.7           100.0    
    765      1     13     40       782.7           100.0    
    766      1     13     41       767.5           100.0    
    767      1     13     42       747.1           100.0    
    768      1     13     43       744.7           100.0    
    769      1     13     44       722.6           100.0    
    770      1     13     45       736.1           100.0    
    771      1     13     46       663.7           100.0    
    772      1     13     56       669.8           100.0    
    773      1     13     57       581.1           100.0    
    774      1     13     58       653.5           100.0    
    775      1     13     59       602.4           100.0    
    776      1     13     60       648.1           100.0    
    777      1     13     61       563.8           100.0    
    778      1     13     62       641.0           100.0    
    779      1     13     63       624.4           100.0    
    780      1     13     64       609.5           100.0    
    781      1     13     65       631.0           100.0    
    782      1     13     66       609.3           100.0    
    783      1     13     67       628.8           100.0    
    784      1     13     68       647.0           100.0    
    785      1     13     69       639.7           100.0    
    786      1     13     70       619.3           100.0    
    787      1     13     74       632.7           100.0    
    788      1     13     75       628.6           100.0    
    789      1     13     76       590.2           100.0    
    790      1     13     77       625.8           100.0    
    791      1     13     78       590.9           100.0    
    792      1     14      2       693.6           100.0    
    793      1     14      3       664.2           100.0    
    794      1     14      4       673.1           100.0    
    795      1     14      5       630.6           100.0    
    796      1     14      6       662.7           100.0    
    797      1     14      7       661.9           100.0    
    798      1     14      8       668.8           100.0    
    799      1     14      9       616.6           100.0    
    800      1     14     10       658.2           100.0    
    801      1     14     11       625.8           100.0    
    802      1     14     12       623.3           100.0    
    803      1     14     13       633.2           100.0    
    804      1     14     23       677.1           100.0    
    805      1     14     24       693.0           100.0    
    806      1     14     25       699.8           100.0    
    807      1     14     26       706.2           100.0    
    808      1     14     27       712.0           100.0    
    809      1     14     28       718.5           100.0    
    810      1     14     29       723.1           100.0    
    811      1     14     30       731.5           100.0    
    812      1     14     31       730.6           100.0    
    813      1     14     32       733.5           100.0    
    814      1     14     33       735.9           100.0    
    815      1     14     34       727.7           100.0    
    816      1     14     35       731.8           100.0    
    817      1     14     36       743.7           100.0    
    818      1     14     37       748.6           100.0    
    819      1     14     38       752.1           100.0    
    820      1     14     39       751.8           100.0    
    821      1     14     40       770.8           100.0    
    822      1     14     41       750.1           100.0    
    823      1     14     42       746.0           100.0    
    824      1     14     43       742.1           100.0    
    825      1     14     44       726.9           100.0    
    826      1     14     45       672.9           100.0    
    827      1     14     46       700.9           100.0    
    828      1     14     56       664.4           100.0    
    829      1     14     57       661.1           100.0    
    830      1     14     58       577.1           100.0    
    831      1     14     59       648.5           100.0    
    832      1     14     60       640.4           100.0    
    833      1     14     61       639.1           100.0    
    834      1     14     62       558.5           100.0    
    835      1     14     63       620.5           100.0    
    836      1     14     64       577.4           100.0    
    837      1     14     65       610.5           100.0    
    838      1     14     66       615.5           100.0    
    839      1     14     67       630.8           100.0    
    840      1     14     68       634.4           100.0    
    841      1     14     69       619.9           100.0    
    842      1     14     70       626.0           100.0    
    843      1     14     74       619.7           100.0    
    844      1     14     75       549.3           100.0    
    845      1     14     76       617.6           100.0    
    846      1     14     77       554.1           100.0    
    847      1     14     78       634.3           100.0    
    848      1     15      2       671.5           100.0    
    849      1     15      3       671.9           100.0    
    850      1     15      4       643.2           100.0    
    851      1     15      5       667.4           100.0    
    852      1     15      6       668.7           100.0    
    853      1     15      7       634.4           100.0    
    854      1     15      8       638.6           100.0    
    855      1     15      9       659.7           100.0    
    856      1     15     10       648.6           100.0    
    857      1     15     11       628.7           100.0    
    858      1     15     12       561.8           100.0    
    859      1     15     13       640.8           100.0    
    860      1     15     23       673.9           100.0    
    861      1     15     24       689.7           100.0    
    862      1     15     25       695.5           100.0    
    863      1     15     26       700.7           100.0    
    864      1     15     27       669.7           100.0    
    865      1     15     28       708.6           100.0    
    866      1     15     29       706.3           100.0    
    867      1     15     30       715.1           100.0    
    868      1     15     31       708.1           100.0    
    869      1     15     32       707.3           100.0    
    870      1     15     33       716.4           100.0    
    871      1     15     34       736.0           100.0    
    872      1     15     35       739.4           100.0    
    873      1     15     36       739.5           100.0    
    874      1     15     37       740.1           100.0    
    875      1     15     38       741.7           100.0    
    876      1     15     39       748.8           100.0    
    877      1     15     40       742.2           100.0    
    878      1     15     41       737.9           100.0    
    879      1     15     42       720.8           100.0    
    880      1     15     43       711.4           100.0    
    881      1     15     44       714.4           100.0    
    882      1     15     45       695.6           100.0    
    883      1     15     46       691.9           100.0    
    884      1     15     56       644.8           100.0    
    885      1     15     57       597.7           100.0    
    886      1     15     58       604.2           100.0    
    887      1     15     59       591.6           100.0    
    888      1     15     60       560.5           100.0    
    889      1     15     61       619.9           100.0    
    890      1     15     62       633.2           100.0    
    891      1     15     63       600.0           100.0    
    892      1     15     64       619.9           100.0    
    893      1     15     65       571.7           100.0    
    894      1     15     66       619.7           100.0    
    895      1     15     67       597.0           100.0    
    896      1     15     68       626.2           100.0    
    897      1     15     69       619.7           100.0    
    898      1     15     70       623.9           100.0    
    899      1     15     74       614.2           100.0    
    900      1     15     75       605.0           100.0    
    901      1     15     76       557.6           100.0    
    902      1     15     77       575.1           100.0    
    903      1     15     78       580.2           100.0    
    904      1     15     47       681.1           100.0    
    905      1     15     48       595.7           100.0    
    906      1     15     54       608.9           100.0    
    907      1     15     55       671.1           100.0    
    908      1     16      4       662.8           100.0    
    909      1     16      5       651.9           100.0    
    910      1     16      6       647.3           100.0    
    911      1     16      7       625.7           100.0    
    912      1     16      8       633.9           100.0    
    913      1     16      9       651.2           100.0    
    914      1     16     10       645.2           100.0    
    915      1     16     11       629.0           100.0    
    916      1     16     12       633.3           100.0    
    917      1     16     13       633.3           100.0    
    918      1     16     23       659.6           100.0    
    919      1     16     24       672.1           100.0    
    920      1     16     25       677.6           100.0    
    921      1     16     26       681.4           100.0    
    922      1     16     27       625.4           100.0    
    923      1     16     28       687.7           100.0    
    924      1     16     29       701.8           100.0    
    925      1     16     30       692.3           100.0    
    926      1     16     31       702.0           100.0    
    927      1     16     32       714.7           100.0    
    928      1     16     33       724.0           100.0    
    929      1     16     34       719.7           100.0    
    930      1     16     35       729.0           100.0    
    931      1     16     36       710.6           100.0    
    932      1     16     37       728.7           100.0    
    933      1     16     38       722.4           100.0    
    934      1     16     39       742.5           100.0    
    935      1     16     40       722.8           100.0    
    936      1     16     41       712.7           100.0    
    937      1     16     42       684.3           100.0    
    938      1     16     43       709.9           100.0    
    939      1     16     44       708.3           100.0    
    940      1     16     45       695.2           100.0    
    941      1     16     46       681.1           100.0    
    942      1     16     47       682.8           100.0    
    943      1     16     48       683.4           100.0    
    944      1     16     54       652.3           100.0    
    945      1     16     55       648.7           100.0    
    946      1     16     56       647.7           100.0    
    947      1     16     57       640.0           100.0    
    948      1     16     58       629.0           100.0    
    949      1     16     59       620.7           100.0    
    950      1     16     60       600.1           100.0    
    951      1     16     61       619.8           100.0    
    952      1     16     62       601.7           100.0    
    953      1     16     63       599.3           100.0    
    954      1     16     64       600.1           100.0    
    955      1     16     65       587.3           100.0    
    956      1     16     66       625.7           100.0    
    957      1     16     67       602.0           100.0    
    958      1     16     68       626.2           100.0    
    959      1     16     69       586.3           100.0    
    960      1     16     74       609.2           100.0    
    961      1     16     75       609.5           100.0    
    962      1     16     76       543.3           100.0    
    963      1     16     77       511.1           100.0    
    964      1     17      4       651.9           100.0    
    965      1     17      5       642.4           100.0    
    966      1     17      6       616.3           100.0    
    967      1     17      7       650.1           100.0    
    968      1     17      8       646.8           100.0    
    969      1     17      9       642.5           100.0    
    970      1     17     10       648.3           100.0    
    971      1     17     11       592.3           100.0    
    972      1     17     12       561.5           100.0    
    973      1     17     13       511.1           100.0    
    974      1     17     23       651.7           100.0    
    975      1     17     24       650.3           100.0    
    976      1     17     25       641.2           100.0    
    977      1     17     26       620.9           100.0    
    978      1     17     27       639.5           100.0    
    979      1     17     28       624.7           100.0    
    980      1     17     29       627.0           100.0    
    981      1     17     30       678.4           100.0    
    982      1     17     31       699.8           100.0    
    983      1     17     32       701.0           100.0    
    984      1     17     33       700.1           100.0    
    985      1     17     34       700.1           100.0    
    986      1     17     35       707.8           100.0    
    987      1     17     36       699.9           100.0    
    988      1     17     37       699.7           100.0    
    989      1     17     38       712.0           100.0    
    990      1     17     39       706.7           100.0    
    991      1     17     40       696.7           100.0    
    992      1     17     41       695.8           100.0    
    993      1     17     42       682.0           100.0    
    994      1     17     43       699.7           100.0    
    995      1     17     44       698.7           100.0    
    996      1     17     45       689.5           100.0    
    997      1     17     54       640.1           100.0    
    998      1     17     55       633.3           100.0    
    999      1     17     56       630.8           100.0    
   1000      1     17     57       577.6           100.0    
   1001      1     17     58       606.5           100.0    
   1002      1     17     59       511.2           100.0    
   1003      1     17     60       617.3           100.0    
   1004      1     17     61       534.7           100.0    
   1005      1     17     62       530.3           100.0    
   1006      1     17     63       557.3           100.0    
   1007      1     17     64       608.0           100.0    
   1008      1     17     65       611.4           100.0    
   1009      1     17     66       619.9           100.0    
   1010      1     17     67       620.5           100.0    
   1011      1     17     68       616.1           100.0    
   1012      1     17     69       594.5           100.0    
   1013      1     17     74       605.4           100.0    
   1014      1     17     75       600.5           100.0    
   1015      1     17     76       538.2           100.0    
   1016      1     17     77       612.9           100.0    
   1017      1     18      4       650.0           100.0    
   1018      1     18      5       579.9           100.0    
   1019      1     18      6       634.9           100.0    
   1020      1     18      7       645.7           100.0    
   1021      1     18      8       646.6           100.0    
   1022      1     18      9       648.8           100.0    
   1023      1     18     10       645.6           100.0    
   1024      1     18     11       639.0           100.0    
   1025      1     18     12       630.9           100.0    
   1026      1     18     13       627.3           100.0    
   1027      1     18     23       638.3           100.0    
   1028      1     18     24       660.1           100.0    
   1029      1     18     25       658.5           100.0    
   1030      1     18     26       594.1           100.0    
   1031      1     18     27       674.4           100.0    
   1032      1     18     28       671.8           100.0    
   1033      1     18     29       678.9           100.0    
   1034      1     18     30       685.8           100.0    
   1035      1     18     31       682.5           100.0    
   1036      1     18     32       679.3           100.0    
   1037      1     18     33       679.9           100.0    
   1038      1     18     34       685.3           100.0    
   1039      1     18     35       692.4           100.0    
   1040      1     18     36       690.9           100.0    
   1041      1     18     37       700.7           100.0    
   1042      1     18     38       708.3           100.0    
   1043      1     18     39       699.9           100.0    
   1044      1     18     40       674.9           100.0    
   1045      1     18     41       708.3           100.0    
   1046      1     18     42       691.5           100.0    
   1047      1     18     43       691.0           100.0    
   1048      1     18     44       686.6           100.0    
   1049      1     18     45       680.2           100.0    
   1050      1     18     54       624.5           100.0    
   1051      1     18     55       622.2           100.0    
   1052      1     18     56       618.4           100.0    
   1053      1     18     57       611.7           100.0    
   1054      1     18     58       589.9           100.0    
   1055      1     18     59       555.2           100.0    
   1056      1     18     60       615.8           100.0    
   1057      1     18     61       572.2           100.0    
   1058      1     18     62       520.0           100.0    
   1059      1     18     63       525.5           100.0    
   1060      1     18     64       614.9           100.0    
   1061      1     18     65       602.0           100.0    
   1062      1     18     66       619.7           100.0    
   1063      1     18     67       599.1           100.0    
   1064      1     18     68       559.7           100.0    
   1065      1     18     69       595.4           100.0    
   1066      1     18     74       467.4           100.0    
   1067      1     18     75       600.9           100.0    
   1068      1     18     76       467.8           100.0    
   1069      1     18     77       530.5           100.0    
   1070      1     18     51       548.3           100.0    
   1071      1     18     52       632.1           100.0    
   1072      1     18     53       531.5           100.0    
   1073      1     19      4       639.3           100.0    
   1074      1     19      5       611.7           100.0    
   1075      1     19      6       620.4           100.0    
   1076      1     19      7       642.8           100.0    
   1077      1     19      8       639.6           100.0    
   1078      1     19      9       638.6           100.0    
   1079      1     19     10       632.0           100.0    
   1080      1     19     11       637.6           100.0    
   1081      1     19     12       631.1           100.0    
   1082      1     19     13       629.8           100.0    
   1083      1     19     23       562.1           100.0    
   1084      1     19     24       645.9           100.0    
   1085      1     19     25       650.5           100.0    
   1086      1     19     26       640.8           100.0    
   1087      1     19     27       663.1           100.0    
   1088      1     19     28       663.0           100.0    
   1089      1     19     29       664.8           100.0    
   1090      1     19     30       666.5           100.0    
   1091      1     19     31       670.5           100.0    
   1092      1     19     32       668.9           100.0    
   1093      1     19     33       666.7           100.0    
   1094      1     19     34       670.4           100.0    
   1095      1     19     35       677.0           100.0    
   1096      1     19     36       656.0           100.0    
   1097      1     19     37       684.8           100.0    
   1098      1     19     38       702.7           100.0    
   1099      1     19     39       695.8           100.0    
   1100      1     19     40       655.2           100.0    
   1101      1     19     41       683.6           100.0    
   1102      1     19     42       681.0           100.0    
   1103      1     19     43       674.9           100.0    
   1104      1     19     44       686.4           100.0    
   1105      1     19     45       673.2           100.0    
   1106      1     19     51       613.1           100.0    
   1107      1     19     52       592.3           100.0    
   1108      1     19     53       622.1           100.0    
   1109      1     19     54       620.2           100.0    
   1110      1     19     55       602.8           100.0    
   1111      1     19     56       543.9           100.0    
   1112      1     19     57       597.3           100.0    
   1113      1     19     58       500.4           100.0    
   1114      1     19     59       610.8           100.0    
   1115      1     19     60       556.8           100.0    
   1116      1     19     61       600.5           100.0    
   1117      1     19     62       604.4           100.0    
   1118      1     19     63       606.5           100.0    
   1119      1     19     64       613.1           100.0    
   1120      1     19     65       619.7           100.0    
   1121      1     19     66       622.2           100.0    
   1122      1     19     67       619.9           100.0    
   1123      1     19     68       620.2           100.0    
   1124      1     19     69       538.6           100.0    
   1125      1     20      4       604.0           100.0    
   1126      1     20      5       608.3           100.0    
   1127      1     20      6       640.1           100.0    
   1128      1     20      7       625.4           100.0    
   1129      1     20      8       638.3           100.0    
   1130      1     20      9       638.0           100.0    
   1131      1     20     10       592.4           100.0    
   1132      1     20     11       632.7           100.0    
   1133      1     20     12       629.2           100.0    
   1134      1     20     13       629.8           100.0    
   1135      1     20     23       646.1           100.0    
   1136      1     20     24       641.7           100.0    
   1137      1     20     25       640.5           100.0    
   1138      1     20     26       570.5           100.0    
   1139      1     20     27       651.2           100.0    
   1140      1     20     28       638.5           100.0    
   1141      1     20     29       624.1           100.0    
   1142      1     20     30       634.7           100.0    
   1143      1     20     31       662.8           100.0    
   1144      1     20     32       664.1           100.0    
   1145      1     20     33       652.5           100.0    
   1146      1     20     34       669.5           100.0    
   1147      1     20     35       677.5           100.0    
   1148      1     20     36       637.2           100.0    
   1149      1     20     37       678.8           100.0    
   1150      1     20     38       699.0           100.0    
   1151      1     20     39       686.9           100.0    
   1152      1     20     40       651.3           100.0    
   1153      1     20     41       653.8           100.0    
   1154      1     20     42       672.4           100.0    
   1155      1     20     43       663.0           100.0    
   1156      1     20     44       675.3           100.0    
   1157      1     20     45       664.5           100.0    
   1158      1     20     51       625.1           100.0    
   1159      1     20     52       606.2           100.0    
   1160      1     20     53       509.8           100.0    
   1161      1     20     54       611.9           100.0    
   1162      1     20     55       619.8           100.0    
   1163      1     20     56       611.9           100.0    
   1164      1     20     57       605.1           100.0    
   1165      1     20     58       573.8           100.0    
   1166      1     20     59       540.0           100.0    
   1167      1     20     60       596.0           100.0    
   1168      1     20     61       599.7           100.0    
   1169      1     20     62       599.7           100.0    
   1170      1     20     63       610.1           100.0    
   1171      1     20     64       599.2           100.0    
   1172      1     20     65       619.4           100.0    
   1173      1     20     66       616.8           100.0    
   1174      1     20     67       619.7           100.0    
   1175      1     20     68       610.1           100.0    
   1176      1     20     69       604.7           100.0    
   1177      1     21      4       610.0           100.0    
   1178      1     21      5       552.7           100.0    
   1179      1     21      6       633.1           100.0    
   1180      1     21      7       602.2           100.0    
   1181      1     21      8       612.3           100.0    
   1182      1     21      9       619.6           100.0    
   1183      1     21     10       615.6           100.0    
   1184      1     21     11       624.0           100.0    
   1185      1     21     12       612.3           100.0    
   1186      1     21     13       629.0           100.0    
   1187      1     21     23       547.4           100.0    
[...]
        725.2       720.2       714.3       707.2       697.9       685.7       669.4       652.5       645.0       644.3    
        644.1       649.6       660.4       664.9       671.7       693.5       696.8       681.4       682.7       691.6    
        717.7       737.0       751.6       758.6       758.5       753.7       740.5       719.7       709.6       699.3    
        702.4       704.7       704.9       703.8       702.4       701.1       700.0       698.8       697.6       697.1    
        696.7       696.7       696.9       697.5       698.4       699.2       699.9       700.4       700.7       700.8    
  92    455.9       454.2       451.4       447.4       442.7       445.5       449.6       454.3       460.4       466.8    
        472.3       477.1       481.0       484.0       486.9       489.0       490.8       492.4       490.9       481.6    
        477.3       476.0       477.4       478.3       478.8       482.2       491.7       496.2       498.6       498.2    
        496.2       500.7       499.9       500.4       499.4       500.7       502.3       503.3       523.3       535.0    
        542.2       547.7       553.9       566.8       602.6       623.5       652.8       667.6       738.7       756.8    
        757.6       760.9       725.3       721.3       703.6       671.3       631.8       595.7       559.0       525.6    
        505.2       501.5       518.9       530.2       542.2       552.8       562.5       572.0       580.5       587.7    
        594.0       599.9       604.9       609.0       612.6       615.4       617.1       644.9       680.6       708.0    
        730.2       748.4       764.0       777.8       788.2       793.9       816.5       833.0       819.4       820.4    
        795.7       782.9       770.6       759.0       749.4       742.7       740.7       737.7       734.2       730.3    
        726.1       721.6       716.7       711.5       705.4       698.7       691.1       683.2       678.6       678.6    
        687.4       696.1       706.7       714.0       721.4       733.8       737.2       736.0       740.0       747.4    
        758.7       768.9       776.5       779.5       777.4       771.3       760.2       745.7       733.5       719.0    
        709.4       713.3       713.3       711.9       710.0       708.0       706.1       704.4       703.0       702.3    
        701.8       701.4       701.4       701.9       702.7       703.4       704.0       704.4       704.7       704.8    
  93    451.6       450.7       448.9       446.0       443.5       446.1       454.6       461.2       467.3       473.2    
        478.6       483.5       487.8       491.4       495.7       498.9       502.3       505.8       508.3       527.7    
        533.7       525.6       488.0       489.6       546.8       550.1       504.4       508.1       511.7       513.8    
        527.6       510.5       511.0       511.0       509.5       506.6       507.7       530.7       560.8       576.3    
        586.8       596.7       608.0       623.3       654.0       686.9       711.8       735.7       770.8       764.3    
        789.0       804.6       786.1       749.5       735.1       705.5       661.7       616.3       577.3       537.6    
        492.6       493.1       524.9       534.5       545.8       556.5       566.6       575.8       584.5       591.8    
        598.3       604.3       609.3       613.4       617.1       620.3       650.3       687.4       716.2       740.0    
        758.8       773.7       787.4       798.8       807.7       814.6       824.3       833.7       835.1       828.3    
        811.2       792.9       774.8       758.5       748.1       745.0       742.6       739.4       735.6       731.6    
        727.3       722.9       718.6       714.6       710.3       706.0       701.9       698.1       696.1       704.0    
        712.3       722.9       734.0       744.3       753.1       762.0       767.7       771.5       775.4       779.7    
        785.1       789.7       792.7       792.6       789.1       782.5       772.7       760.8       749.6       740.3    
        729.7       724.1       722.3       720.0       717.3       713.8       711.4       709.5       707.8       706.4    
        705.6       705.2       705.3       706.0       706.6       707.3       707.8       708.2       708.4       708.5    
  94    447.6       447.3       446.3       443.4       446.7       453.6       460.7       467.1       473.1       478.8    
        484.1       488.9       493.3       497.6       503.2       506.8       510.2       515.8       521.3       538.3    
        572.3       587.1       585.8       612.0       663.9       657.4       575.6       513.2       516.8       521.8    
        526.3       520.0       520.4       519.5       521.3       543.5       554.5       573.9       600.8       617.3    
        627.2       642.8       658.5       681.4       707.4       736.7       754.2       771.8       784.8       783.6    
        811.5       821.8       814.0       810.3       759.7       732.7       686.6       634.4       591.3       546.3    
        492.6       492.5       532.7       556.0       574.5       588.5       602.1       612.8       621.5       628.8    
        635.6       641.4       646.1       651.4       657.6       667.9       696.4       723.8       746.5       765.7    
        780.9       793.7       804.9       813.8       820.8       825.8       827.3       838.4       834.8       825.8    
        812.7       793.0       768.8       753.2       749.6       746.7       744.4       741.2       737.3       733.3    
        729.1       724.7       720.7       717.4       714.2       711.1       708.6       707.0       707.5       713.1    
        722.6       736.1       750.6       763.8       774.1       782.2       788.6       793.3       796.7       799.3    
        801.4       802.3       801.7       798.8       793.6       787.0       778.2       767.5       756.1       747.9    
        743.2       735.0       731.0       728.1       724.8       718.4       715.6       713.8       711.1       709.4    
        708.5       708.1       708.2       709.6       710.4       710.9       711.3       711.6       711.8       711.9    
  95    443.1       443.6       444.4       444.8       453.3       459.9       466.3       472.4       478.2       483.5    
        488.4       493.0       497.9       503.4       508.7       511.7       518.3       525.2       532.4       554.4    
        573.5       588.5       644.7       688.9       713.9       719.3       719.6       703.7       557.3       531.0    
        533.3       530.2       530.2       559.7       576.4       605.3       628.5       651.1       660.2       663.0    
        662.5       688.2       706.0       729.3       746.1       766.9       781.5       792.1       800.4       810.7    
        818.1       826.8       831.1       808.3       810.6       747.1       707.0       652.9       604.6       554.1    
        492.4       494.8       547.0       580.6       609.0       629.2       643.6       655.0       663.7       671.8    
        679.2       685.3       690.7       696.8       704.0       715.5       734.7       754.3       771.1       785.5    
        797.6       808.7       817.5       823.9       828.9       832.4       836.4       836.1       829.0       816.1    
        808.0       786.6       758.8       754.6       751.0       748.1       745.6       742.7       738.9       735.2    
        731.1       726.8       723.0       720.0       717.7       715.4       713.7       712.9       714.0       717.8    
        723.0       736.9       757.9       774.9       787.4       796.3       803.1       807.7       810.4       811.5    
        811.1       809.1       804.7       798.2       789.9       784.0       776.8       767.4       756.6       751.6    
        747.0       741.8       738.3       735.9       734.4       731.1       718.6       717.9       726.0       729.8    
        732.5       728.2       722.6       713.2       713.9       714.3       714.6       714.8       714.9       715.0    
  96    444.9       450.2       452.8       455.4       460.4       465.9       471.7       477.1       482.2       487.1    
        491.7       496.3       502.0       508.9       512.3       517.4       524.8       531.1       543.6       561.9    
        573.0       632.7       688.3       722.9       739.0       753.3       759.6       733.0       648.8       614.7    
        599.1       603.3       600.7       623.8       646.8       666.0       694.7       715.1       714.5       712.9    
        742.0       735.9       745.7       760.5       774.6       789.0       798.9       806.8       809.9       793.0    
        821.6       832.9       834.9       832.5       821.0       807.5       720.4       675.0       622.3       565.4    
        495.4       518.2       565.4       604.3       637.9       658.6       672.7       684.1       692.6       703.0    
        711.7       718.8       725.7       732.4       740.2       751.8       765.9       779.0       790.8       801.1    
        810.5       819.8       826.6       831.5       834.6       836.0       837.1       833.1       820.6       801.8    
        800.3       783.4       759.3       755.8       752.4       749.6       746.9       743.8       740.4       737.0    
        733.2       729.1       725.4       722.5       720.6       719.0       717.8       717.5       718.5       721.2    
        725.9       732.0       760.0       783.0       797.1       806.5       813.1       817.3       819.1       818.6    
        815.8       810.5       802.0       790.7       780.2       776.7       771.8       766.5       760.1       755.1    
        750.8       747.0       744.2       742.5       742.4       745.1       739.2       740.3       749.2       753.8    
        753.8       751.3       743.8       729.3       717.2       717.5       717.6       717.6       717.7       717.8    
  97    455.5       458.5       460.2       462.7       466.6       471.2       476.1       480.6       485.3       489.8    
        494.1       498.9       506.6       512.4       516.2       521.4       527.2       533.3       576.6       606.3    
        631.6       683.6       722.8       747.9       762.4       768.8       778.8       771.4       735.8       697.9    
        669.0       661.8       672.3       686.0       699.8       710.6       730.7       742.2       747.0       751.6    
        771.0       768.5       774.2       783.5       795.3       805.1       812.9       818.4       820.1       805.4    
        833.9       835.5       836.1       836.8       829.6       815.5       740.9       699.0       648.5       586.9    
        493.4       495.6       570.2       623.7       657.0       677.5       693.6       705.8       717.1       728.7    
        737.6       745.4       753.2       760.2       768.5       778.5       788.0       796.8       805.1       812.8    
        819.8       826.7       832.1       835.5       837.1       836.3       835.4       830.0       815.9       797.6    
        794.1       781.9       760.6       757.2       753.7       750.8       748.0       745.0       741.8       738.4    
        734.9       731.3       727.8       725.0       723.1       721.9       721.1       720.9       721.5       722.9    
        737.6       751.9       774.4       793.0       805.7       814.3       820.2       823.7       824.3       822.1    
        816.6       807.5       794.4       783.4       780.5       776.7       772.2       767.5       762.4       758.0    
        754.1       751.0       748.8       747.6       747.6       748.8       752.9       759.1       767.0       770.9    
        768.8       767.8       761.2       749.5       732.9       720.4       720.3       720.1       720.2       720.2    
  98    463.0       463.8       465.4       467.8       471.1       475.0       479.1       483.2       487.4       491.6    
        495.8       502.3       509.9       515.2       519.5       524.1       528.6       584.3       633.3       660.2    
        686.7       719.9       748.1       766.2       778.0       781.1       795.4       795.3       788.5       763.0    
        747.5       766.4       725.8       732.2       741.6       750.5       758.9       765.5       771.8       778.0    
        790.2       790.6       794.2       800.1       809.9       817.5       823.3       827.2       830.4       834.3    
        826.8       834.8       814.9       834.0       824.9       803.7       765.2       723.8       676.9       625.5    
        561.1       503.8       584.2       638.2       670.0       690.9       707.7       722.0       735.5       746.1    
        755.2       763.5       771.0       778.3       786.7       795.0       802.4       809.0       815.0       820.5    
        825.4       830.4       834.8       836.7       837.4       835.6       832.3       825.9       811.8       794.1    
        790.7       778.7       762.2       758.6       754.9       751.7       748.8       745.9       742.9       739.6    
        736.2       732.9       729.8       727.1       725.2       724.1       723.6       723.4       723.6       736.1    
        754.3       769.8       787.1       802.2       812.8       820.3       825.2       827.6       827.2       823.4    
        814.9       801.4       786.8       783.9       780.8       777.1       772.8       768.4       764.1       760.2    
        756.8       754.1       752.2       751.3       751.4       752.7       755.4       766.4       777.2       782.3    
        783.4       781.3       775.0       764.9       751.4       734.6       722.6       722.0       722.2       722.2    
  99    466.5       467.3       468.7       471.0       473.9       477.4       481.0       484.8       488.7       492.9    
        497.6       504.9       512.3       518.3       522.6       525.8       586.0       643.0       672.3       695.1    
        717.1       741.1       760.4       776.3       790.4       805.0       804.8       801.7       797.6       789.2    
        788.9       787.1       767.8       764.9       772.1       776.6       779.0       783.3       788.6       793.3    
        800.4       804.1       807.7       811.9       818.3       823.9       829.3       832.8       835.1       838.1    
        838.2       834.0       825.1       832.8       823.7       805.8       778.6       744.3       701.5       651.7    
        594.5       503.6       602.4       648.6       678.4       699.5       715.9       730.5       744.0       755.0    
        764.6       772.9       780.7       788.8       797.0       804.6       811.3       817.0       821.3       824.8    
        828.3       832.3       835.2       835.6       836.1       834.8       829.4       822.9       809.3       791.5    
        783.8       773.0       765.1       759.9       755.6       752.3       749.5       746.5       743.4       740.1    
        737.2       734.2       731.2       728.6       726.7       725.6       725.2       725.3       733.4       749.6    
        766.0       781.3       796.6       809.1       818.0       824.4       828.3       829.8       828.4       823.2    
        812.5       797.2       786.6       784.1       781.1       777.5       773.4       769.3       765.3       761.7    
        758.7       756.2       754.5       753.7       753.8       754.8       756.5       769.5       782.2       789.2    
        792.0       790.3       784.7       775.7       764.0       750.7       737.1       729.7       724.0       723.8    
 100    468.2       468.9       470.3       472.6       475.4       478.6       481.9       485.4       489.3       493.9    
        498.9       506.4       514.4       520.6       524.2       527.5       569.1       655.4       694.9       713.6    
        733.8       753.6       768.6       779.3       798.5       811.1       810.2       788.0       802.2       799.4    
        799.2       793.6       782.7       780.6       783.0       786.1       788.8       792.7       796.1       799.8    
        805.7       809.7       813.9       817.7       821.7       827.8       832.3       835.7       838.5       839.9    
        839.2       839.4       839.0       835.4       822.7       808.2       783.4       753.2       717.8       675.8    
        631.3       490.4       628.9       660.3       684.1       703.7       719.2       733.9       748.2       759.2    
        768.8       777.3       785.5       793.8       801.8       809.2       815.6       820.9       824.5       826.5    
        827.4       832.6       835.2       835.3       835.2       833.6       827.4       820.7       810.4       794.4    
        779.7       773.0       766.0       760.5       755.9       752.6       749.8       746.9       743.6       740.4    
        737.6       734.8       731.9       729.4       727.5       726.4       726.0       726.2       737.4       754.5    
        771.4       787.0       801.2       812.7       821.0       826.5       829.7       830.5       828.7       822.5    
        808.4       790.5       787.1       784.3       781.3       777.7       773.8       769.8       766.0       762.5    
        759.6       757.2       755.7       754.9       755.0       755.8       757.0       770.7       784.8       792.7    
        795.8       794.5       789.4       781.1       770.4       758.6       746.4       734.9       725.0       724.7    

 HEAD WILL BE SAVED ON UNIT   51 AT END OF TIME STEP    1, STRESS PERIOD    1
1
  VOLUMETRIC BUDGET FOR ENTIRE MODEL AT END OF TIME STEP    1, STRESS PERIOD   1
  ------------------------------------------------------------------------------

     CUMULATIVE VOLUMES      L**3       RATES FOR THIS TIME STEP      L**3/T
     ------------------                 ------------------------

           IN:                                      IN:
           ---                                      ---
             STORAGE =           0.0000               STORAGE =           0.0000
       CONSTANT HEAD =           0.0000         CONSTANT HEAD =           0.0000
              DRAINS =           0.0000                DRAINS =           0.0000
       RIVER LEAKAGE =     8390041.0000         RIVER LEAKAGE =     8390041.0000
            RECHARGE =   359100512.0000              RECHARGE =   359100512.0000

            TOTAL IN =   367490560.0000              TOTAL IN =   367490560.0000

          OUT:                                     OUT:
          ----                                     ----
             STORAGE =           0.0000               STORAGE =           0.0000
       CONSTANT HEAD =           0.0000         CONSTANT HEAD =           0.0000
              DRAINS =   135884944.0000                DRAINS =   135884944.0000
       RIVER LEAKAGE =   255674384.0000         RIVER LEAKAGE =   255674384.0000
            RECHARGE =           0.0000              RECHARGE =           0.0000

           TOTAL OUT =   391559328.0000             TOTAL OUT =   391559328.0000

            IN - OUT =   -24068768.0000              IN - OUT =   -24068768.0000

 PERCENT DISCREPANCY =          -6.34     PERCENT DISCREPANCY =          -6.34






         TIME SUMMARY AT END OF TIME STEP    1 IN STRESS PERIOD    1
                    SECONDS     MINUTES      HOURS       DAYS        YEARS
                    -----------------------------------------------------------
   TIME STEP LENGTH  86400.      1440.0      24.000      1.0000     2.73785E-03
 STRESS PERIOD TIME  86400.      1440.0      24.000      1.0000     2.73785E-03
         TOTAL TIME  86400.      1440.0      24.000      1.0000     2.73785E-03
1

 Run end date and time (yyyy/mm/dd hh:mm:ss): 2021/04/15  1:02:26
 Elapsed run time:  0.167 Seconds

