                                  MODFLOW-2005     
      U.S. GEOLOGICAL SURVEY MODULAR FINITE-DIFFERENCE GROUND-WATER FLOW MODEL
                            VERSION 1.12.00 2/3/2017

 LIST FILE: my_model.list
                         UNIT    2

 OPENING my_model.dis
 FILE TYPE:DIS   UNIT   11   STATUS:OLD    
 FORMAT:FORMATTED              ACCESS:SEQUENTIAL          

 OPENING my_model.bas
 FILE TYPE:BAS6   UNIT   13   STATUS:OLD    
 FORMAT:FORMATTED              ACCESS:SEQUENTIAL          

 OPENING my_model.riv
 FILE TYPE:RIV   UNIT   18   STATUS:OLD    
 FORMAT:FORMATTED              ACCESS:SEQUENTIAL          

 OPENING my_model.lpf
 FILE TYPE:LPF   UNIT   15   STATUS:OLD    
 FORMAT:FORMATTED              ACCESS:SEQUENTIAL          

 OPENING my_model.drn
 FILE TYPE:DRN   UNIT   21   STATUS:OLD    
 FORMAT:FORMATTED              ACCESS:SEQUENTIAL          

 OPENING my_model.rch
 FILE TYPE:RCH   UNIT   19   STATUS:OLD    
 FORMAT:FORMATTED              ACCESS:SEQUENTIAL          

 OPENING my_model.oc
 FILE TYPE:OC   UNIT   14   STATUS:OLD    
 FORMAT:FORMATTED              ACCESS:SEQUENTIAL          

 OPENING my_model.pcg
 FILE TYPE:PCG   UNIT   27   STATUS:OLD    
 FORMAT:FORMATTED              ACCESS:SEQUENTIAL          

 OPENING my_model.cbc
 FILE TYPE:DATA(BINARY)   UNIT    1   STATUS:REPLACE
 FORMAT:BINARY                 ACCESS:SEQUENTIAL          

 OPENING my_model.hds
 FILE TYPE:DATA(BINARY)   UNIT   51   STATUS:REPLACE
 FORMAT:BINARY                 ACCESS:SEQUENTIAL          

 BAS -- BASIC PACKAGE, VERSION 7, 5/2/2005 INPUT READ FROM UNIT   13
 
 MODFLOW was compiled using mixed precision
 Precision of REAL variables:           6
 Precision of DOUBLE PRECISION variables:          15

 DISCRETIZATION INPUT DATA READ FROM UNIT   11
 # DIS package for  MODFLOW-2005, generated by Flopy.
    1 LAYERS       100 ROWS       150 COLUMNS
    1 STRESS PERIOD(S) IN SIMULATION
 MODEL TIME UNIT IS DAYS
 MODEL LENGTH UNIT IS FEET
  Confining bed flag for each layer:
   0

                     DELR =   2925.65    

                     DELC =   2727.60    



           TOP ELEVATION OF LAYER 1
 READING ON UNIT   11 WITH FORMAT: (150E15.6)          



             MODEL LAYER BOTTOM EL. FOR LAYER   1
 READING ON UNIT   11 WITH FORMAT: (150E15.6)          


 STRESS PERIOD     LENGTH       TIME STEPS     MULTIPLIER FOR DELT    SS FLAG
 ----------------------------------------------------------------------------
        1         1.000000          1                    1.000         SS

 STEADY-STATE SIMULATION



 
 # BAS6 package for  MODFLOW-2005, generated by Flopy.                           
 THE FREE FORMAT OPTION HAS BEEN SELECTED



                     BOUNDARY ARRAY FOR LAYER   1
 READING ON UNIT   13 WITH FORMAT: (150I10)            

 AQUIFER HEAD WILL BE SET TO  -999.99     AT ALL NO-FLOW NODES (IBOUND=0).



                       INITIAL HEAD FOR LAYER   1
 READING ON UNIT   13 WITH FORMAT: (150E15.6)          
 # OC package for  MODFLOW-2005, generated by Flopy.

 OUTPUT CONTROL IS SPECIFIED ONLY AT TIME STEPS FOR WHICH OUTPUT IS DESIRED
 COMPACT CELL-BY-CELL BUDGET FILES WILL BE WRITTEN
 AUXILIARY DATA WILL BE SAVED IN CELL-BY-CELL BUDGET FILES
 HEAD PRINT FORMAT CODE IS   0    DRAWDOWN PRINT FORMAT CODE IS   0
 HEADS WILL BE SAVED ON UNIT   51    DRAWDOWNS WILL BE SAVED ON UNIT    0

 LPF -- LAYER-PROPERTY FLOW PACKAGE, VERSION 7, 5/2/2005
         INPUT READ FROM UNIT   15
 # LPF package for  MODFLOW-2005, generated by Flopy.
 CELL-BY-CELL FLOWS WILL BE SAVED ON UNIT    1
 HEAD AT CELLS THAT CONVERT TO DRY= -1.00000E+30
 No named parameters

   LAYER FLAGS:
 LAYER       LAYTYP        LAYAVG         CHANI        LAYVKA        LAYWET
 ---------------------------------------------------------------------------
    1             0             0     1.000E+00             0             0

   INTERPRETATION OF LAYER FLAGS:
                        INTERBLOCK     HORIZONTAL    DATA IN
         LAYER TYPE   TRANSMISSIVITY   ANISOTROPY   ARRAY VKA   WETTABILITY
 LAYER      (LAYTYP)      (LAYAVG)       (CHANI)      (LAYVKA)      (LAYWET)
 ---------------------------------------------------------------------------
    1      CONFINED      HARMONIC     1.000E+00    VERTICAL K  NON-WETTABLE

 WETTING CAPABILITY IS NOT ACTIVE IN ANY LAYER



              HYD. COND. ALONG ROWS FOR LAYER   1
 READING ON UNIT   15 WITH FORMAT: (150E15.6)          



                VERTICAL HYD. COND. FOR LAYER   1
 READING ON UNIT   15 WITH FORMAT: (150E15.6)          

 DRN -- DRAIN PACKAGE, VERSION 7, 5/2/2005 INPUT READ FROM UNIT   21
 # DRN package for  MODFLOW-2005, generated by Flopy.
 No named parameters
 MAXIMUM OF   6063 ACTIVE DRAINS AT ONE TIME


     0 Drain parameters

 RIV -- RIVER PACKAGE, VERSION 7, 5/2/2005 INPUT READ FROM UNIT   18
 # RIV package for  MODFLOW-2005, generated by Flopy.
 No named parameters
 MAXIMUM OF   3696 ACTIVE RIVER REACHES AT ONE TIME


     0 River parameters

 RCH -- RECHARGE PACKAGE, VERSION 7, 5/2/2005 INPUT READ FROM UNIT   19
 # RCH package for  MODFLOW-2005, generated by Flopy.
 No named parameters
 OPTION 3 -- RECHARGE TO HIGHEST ACTIVE NODE IN EACH VERTICAL COLUMN


     0 Recharge parameters

 PCG -- CONJUGATE-GRADIENT SOLUTION PACKAGE, VERSION 7, 5/2/2005
 # PCG package for  MODFLOW-2005, generated by Flopy.
 MAXIMUM OF    600 CALLS OF SOLUTION ROUTINE
 MAXIMUM OF     25 INTERNAL ITERATIONS PER CALL TO SOLUTION ROUTINE
 MATRIX PRECONDITIONING TYPE :    1



                                    SOLUTION BY THE CONJUGATE-GRADIENT METHOD
                                   -------------------------------------------
                    MAXIMUM NUMBER OF CALLS TO PCG ROUTINE =      600
                        MAXIMUM ITERATIONS PER CALL TO PCG =       25
                               MATRIX PRECONDITIONING TYPE =        1
        RELAXATION FACTOR (ONLY USED WITH PRECOND. TYPE 1) =    0.10000E+01
 PARAMETER OF POLYNOMIAL PRECOND. = 2 (2) OR IS CALCULATED :        0
                         HEAD CHANGE CRITERION FOR CLOSURE =    0.10000E-05
                     RESIDUAL CHANGE CRITERION FOR CLOSURE =    0.10000E-05
            PCG HEAD AND RESIDUAL CHANGE PRINTOUT INTERVAL =      999
     PRINTING FROM SOLVER IS LIMITED(1) OR SUPPRESSED (>1) =        3
                            STEADY-STATE DAMPING PARAMETER =    0.10000E+01
                               TRANSIENT DAMPING PARAMETER =    0.10000E+01
1
                            STRESS PERIOD NO.    1, LENGTH =   1.000000    
                            -----------------------------------------------

                              NUMBER OF TIME STEPS =     1

                               MULTIPLIER FOR DELT =     1.000

                            INITIAL TIME STEP SIZE =   1.000000    

 DRAIN NO.  LAYER   ROW   COL     DRAIN EL.  CONDUCTANCE         
 ----------------------------------------------------------------
      1      1      1      1       673.4           50.00    
      2      1      1      2       669.2           50.00    
      3      1      1      3       665.9           50.00    
      4      1      1      4       649.5           50.00    
      5      1      1      5       660.2           50.00    
      6      1      1      6       627.2           50.00    
      7      1      1      7       652.1           50.00    
      8      1      1      8       650.4           50.00    
      9      1      1      9       674.6           50.00    
     10      1      1     10       645.9           50.00    
     11      1      1     11       677.8           50.00    
     12      1      1     12       646.7           50.00    
     13      1      1     13       676.3           50.00    
     14      1      1     14       662.9           50.00    
     15      1      1     15       659.1           50.00    
     16      1      1     16       644.8           50.00    
     17      1      1     17       636.8           50.00    
     18      1      1     18       622.7           50.00    
     19      1      1     19       654.9           50.00    
     20      1      1     20       593.6           50.00    
     21      1      1     21       540.1           50.00    
     22      1      1     22       533.7           50.00    
     23      1      1     23       561.7           50.00    
     24      1      1     24       599.6           50.00    
     25      1      1     25       556.7           50.00    
     26      1      1     26       602.4           50.00    
     27      1      1     27       590.1           50.00    
     28      1      1     28       575.0           50.00    
     29      1      1     29       611.3           50.00    
     30      1      1     30       640.1           50.00    
     31      1      1     31       660.7           50.00    
     32      1      1     32       691.5           50.00    
     33      1      1     33       687.6           50.00    
     34      1      1     34       678.0           50.00    
     35      1      1     35       608.1           50.00    
     36      1      1     36       677.8           50.00    
     37      1      1     37       605.8           50.00    
     38      1      1     38       641.8           50.00    
     39      1      1     39       672.9           50.00    
     40      1      1     40       673.7           50.00    
     41      1      1     41       629.1           50.00    
     42      1      1     42       699.7           50.00    
     43      1      1     43       709.8           50.00    
     44      1      1     44       732.9           50.00    
     45      1      1     45       733.9           50.00    
     46      1      1     46       713.8           50.00    
     47      1      1     47       690.7           50.00    
     48      1      1     48       711.5           50.00    
     49      1      1     49       711.1           50.00    
     50      1      1     50       735.9           50.00    
     51      1      1     51       686.2           50.00    
     52      1      1     52       709.4           50.00    
     53      1      1     53       724.2           50.00    
     54      1      1     54       730.3           50.00    
     55      1      1     55       698.1           50.00    
     56      1      1     56       689.0           50.00    
     57      1      1     57       693.0           50.00    
     58      1      1     58       685.7           50.00    
     59      1      1     59       704.2           50.00    
     60      1      1     60       682.9           50.00    
     61      1      1     61       665.5           50.00    
     62      1      1     62       671.9           50.00    
     63      1      1     63       720.2           50.00    
     64      1      1     64       680.6           50.00    
     65      1      1     65       680.8           50.00    
     66      1      1     66       717.0           50.00    
     67      1      1     67       683.1           50.00    
     68      1      1     68       638.0           50.00    
     69      1      1     69       595.2           50.00    
     70      1      1     70       668.9           50.00    
     71      1      1     71       672.1           50.00    
     72      1      1     72       685.8           50.00    
     73      1      1     73       671.5           50.00    
     74      1      1     74       604.2           50.00    
     75      1      1     75       585.3           50.00    
     76      1      1     76       573.0           50.00    
     77      1      1     77       576.7           50.00    
     78      1      1     78       592.4           50.00    
     79      1      1     79       570.6           50.00    
     80      1      1    111       750.7           50.00    
     81      1      1    112       754.9           50.00    
     82      1      1    113       757.6           50.00    
     83      1      1    114       723.0           50.00    
     84      1      1    115       736.7           50.00    
     85      1      1    116       729.2           50.00    
     86      1      1    117       758.1           50.00    
     87      1      1    118       764.0           50.00    
     88      1      1    119       770.7           50.00    
     89      1      1    120       759.7           50.00    
     90      1      1    121       760.2           50.00    
     91      1      1    122       751.7           50.00    
     92      1      1    123       750.6           50.00    
     93      1      1    124       751.1           50.00    
     94      1      1    125       749.5           50.00    
     95      1      1    126       744.8           50.00    
     96      1      1    127       739.1           50.00    
     97      1      1    128       710.3           50.00    
     98      1      1    129       660.8           50.00    
     99      1      1    130       704.7           50.00    
    100      1      1    131       731.6           50.00    
    101      1      1    132       736.2           50.00    
    102      1      1    133       739.3           50.00    
    103      1      1    134       727.3           50.00    
    104      1      1    135       739.0           50.00    
    105      1      1    136       745.9           50.00    
    106      1      1    137       739.8           50.00    
    107      1      1    138       726.9           50.00    
    108      1      1    139       725.9           50.00    
    109      1      1    140       721.3           50.00    
    110      1      1    141       725.1           50.00    
    111      1      1    142       740.9           50.00    
    112      1      1    143       756.4           50.00    
    113      1      1    144       755.2           50.00    
    114      1      1    145       755.2           50.00    
    115      1      1    146       745.7           50.00    
    116      1      1    147       740.0           50.00    
    117      1      1    148       737.3           50.00    
    118      1      1    149       738.4           50.00    
    119      1      1    150       740.0           50.00    
    120      1      2      1       655.3           50.00    
    121      1      2      2       668.3           50.00    
    122      1      2      3       643.9           50.00    
    123      1      2      4       597.6           50.00    
    124      1      2      5       580.0           50.00    
    125      1      2      6       617.4           50.00    
    126      1      2      7       672.4           50.00    
    127      1      2      8       640.2           50.00    
    128      1      2      9       641.3           50.00    
    129      1      2     10       647.4           50.00    
    130      1      2     11       635.9           50.00    
    131      1      2     12       661.1           50.00    
    132      1      2     13       652.4           50.00    
    133      1      2     14       658.4           50.00    
    134      1      2     15       533.7           50.00    
    135      1      2     16       532.4           50.00    
    136      1      2     17       562.1           50.00    
    137      1      2     18       631.6           50.00    
    138      1      2     19       619.3           50.00    
    139      1      2     20       617.7           50.00    
    140      1      2     21       522.1           50.00    
    141      1      2     22       543.4           50.00    
    142      1      2     23       545.0           50.00    
    143      1      2     24       614.5           50.00    
    144      1      2     25       603.2           50.00    
    145      1      2     26       589.6           50.00    
    146      1      2     27       631.8           50.00    
    147      1      2     28       624.1           50.00    
    148      1      2     29       638.2           50.00    
    149      1      2     30       649.7           50.00    
    150      1      2     31       659.7           50.00    
    151      1      2     32       683.3           50.00    
    152      1      2     33       671.7           50.00    
    153      1      2     34       683.7           50.00    
    154      1      2     35       668.2           50.00    
    155      1      2     36       670.1           50.00    
    156      1      2     37       752.7           50.00    
    157      1      2     38       663.2           50.00    
    158      1      2     39       699.8           50.00    
    159      1      2     40       718.3           50.00    
    160      1      2     41       663.0           50.00    
    161      1      2     42       701.4           50.00    
    162      1      2     43       714.4           50.00    
    163      1      2     44       758.6           50.00    
    164      1      2     45       728.2           50.00    
    165      1      2     46       663.9           50.00    
    166      1      2     47       709.1           50.00    
    167      1      2     48       723.0           50.00    
    168      1      2     49       737.4           50.00    
    169      1      2     50       680.3           50.00    
    170      1      2     51       718.3           50.00    
    171      1      2     52       730.9           50.00    
    172      1      2     53       747.1           50.00    
    173      1      2     54       733.0           50.00    
    174      1      2     55       699.7           50.00    
    175      1      2     56       719.1           50.00    
    176      1      2     57       708.4           50.00    
    177      1      2     58       692.8           50.00    
    178      1      2     59       699.8           50.00    
    179      1      2     60       703.1           50.00    
    180      1      2     61       680.2           50.00    
    181      1      2     62       700.2           50.00    
    182      1      2     63       730.0           50.00    
    183      1      2     64       673.9           50.00    
    184      1      2     65       721.3           50.00    
    185      1      2     66       707.3           50.00    
    186      1      2     67       594.2           50.00    
    187      1      2     68       651.8           50.00    
    188      1      2     69       653.4           50.00    
    189      1      2     70       622.8           50.00    
    190      1      2     71       698.0           50.00    
    191      1      2     72       724.2           50.00    
    192      1      2     73       694.3           50.00    
    193      1      2     74       662.8           50.00    
    194      1      2     75       565.7           50.00    
    195      1      2     76       609.0           50.00    
    196      1      2     77       586.7           50.00    
    197      1      2     78       587.6           50.00    
    198      1      2    111       754.4           50.00    
    199      1      2    112       758.1           50.00    
    200      1      2    113       752.7           50.00    
    201      1      2    114       743.5           50.00    
    202      1      2    115       740.0           50.00    
    203      1      2    116       784.7           50.00    
    204      1      2    117       777.2           50.00    
    205      1      2    118       783.7           50.00    
    206      1      2    119       772.5           50.00    
    207      1      2    120       760.1           50.00    
    208      1      2    121       755.5           50.00    
    209      1      2    122       738.2           50.00    
    210      1      2    123       736.9           50.00    
    211      1      2    124       737.6           50.00    
    212      1      2    125       745.7           50.00    
    213      1      2    126       744.8           50.00    
    214      1      2    127       744.8           50.00    
    215      1      2    128       716.2           50.00    
    216      1      2    129       711.2           50.00    
    217      1      2    130       703.7           50.00    
    218      1      2    131       731.6           50.00    
    219      1      2    132       730.1           50.00    
    220      1      2    133       739.7           50.00    
    221      1      2    134       732.3           50.00    
    222      1      2    135       738.1           50.00    
    223      1      2    136       750.1           50.00    
    224      1      2    137       744.3           50.00    
    225      1      2    138       731.6           50.00    
    226      1      2    139       720.5           50.00    
    227      1      2    140       722.5           50.00    
    228      1      2    141       719.5           50.00    
    229      1      2    142       735.6           50.00    
    230      1      2    143       739.8           50.00    
    231      1      2    144       752.7           50.00    
    232      1      2    145       760.0           50.00    
    233      1      2    146       749.7           50.00    
    234      1      2    147       745.3           50.00    
    235      1      2    148       740.3           50.00    
    236      1      2    149       744.2           50.00    
    237      1      2    150       744.9           50.00    
    238      1      3      1       649.3           50.00    
    239      1      3      2       669.4           50.00    
    240      1      3      3       665.1           50.00    
    241      1      3      4       652.4           50.00    
    242      1      3      5       610.3           50.00    
    243      1      3      6       574.9           50.00    
    244      1      3      7       632.4           50.00    
    245      1      3      8       626.0           50.00    
    246      1      3      9       635.7           50.00    
    247      1      3     10       622.9           50.00    
    248      1      3     11       643.0           50.00    
    249      1      3     12       602.9           50.00    
    250      1      3     13       648.0           50.00    
    251      1      3     14       635.0           50.00    
    252      1      3     15       542.0           50.00    
    253      1      3     16       534.7           50.00    
    254      1      3     17       540.0           50.00    
    255      1      3     18       530.5           50.00    
    256      1      3     19       528.2           50.00    
    257      1      3     20       520.5           50.00    
    258      1      3     21       538.1           50.00    
    259      1      3     22       529.7           50.00    
    260      1      3     23       596.0           50.00    
    261      1      3     24       624.7           50.00    
    262      1      3     25       630.3           50.00    
    263      1      3     26       628.7           50.00    
    264      1      3     27       634.2           50.00    
    265      1      3     28       635.8           50.00    
    266      1      3     29       644.6           50.00    
    267      1      3     30       597.9           50.00    
    268      1      3     31       649.8           50.00    
    269      1      3     32       681.5           50.00    
    270      1      3     33       693.3           50.00    
    271      1      3     34       698.4           50.00    
    272      1      3     35       704.7           50.00    
    273      1      3     36       715.5           50.00    
    274      1      3     37       722.9           50.00    
    275      1      3     38       719.8           50.00    
    276      1      3     39       712.4           50.00    
    277      1      3     40       713.4           50.00    
    278      1      3     41       704.4           50.00    
    279      1      3     42       660.3           50.00    
    280      1      3     43       709.1           50.00    
    281      1      3     44       731.9           50.00    
    282      1      3     45       739.5           50.00    
    283      1      3     46       744.5           50.00    
    284      1      3     47       730.7           50.00    
    285      1      3     48       734.5           50.00    
    286      1      3     49       756.2           50.00    
    287      1      3     50       749.7           50.00    
    288      1      3     51       701.6           50.00    
    289      1      3     52       736.8           50.00    
    290      1      3     53       750.2           50.00    
    291      1      3     54       727.5           50.00    
    292      1      3     55       722.2           50.00    
    293      1      3     56       688.2           50.00    
    294      1      3     57       739.7           50.00    
    295      1      3     58       691.4           50.00    
    296      1      3     59       723.0           50.00    
    297      1      3     60       719.7           50.00    
    298      1      3     61       700.7           50.00    
    299      1      3     62       670.2           50.00    
    300      1      3     63       736.8           50.00    
    301      1      3     64       742.0           50.00    
    302      1      3     65       738.8           50.00    
    303      1      3     66       702.8           50.00    
    304      1      3     67       595.4           50.00    
    305      1      3     68       583.6           50.00    
    306      1      3     69       675.0           50.00    
    307      1      3     70       633.6           50.00    
    308      1      3     71       700.2           50.00    
    309      1      3     72       722.8           50.00    
    310      1      3     73       709.7           50.00    
    311      1      3     74       705.9           50.00    
    312      1      3     75       649.7           50.00    
    313      1      3     76       573.7           50.00    
    314      1      3     77       614.6           50.00    
    315      1      3    112       751.8           50.00    
    316      1      3    113       748.8           50.00    
    317      1      3    114       712.5           50.00    
    318      1      3    115       724.3           50.00    
    319      1      3    116       729.9           50.00    
    320      1      3    117       782.5           50.00    
    321      1      3    118       767.3           50.00    
    322      1      3    119       780.8           50.00    
    323      1      3    120       769.2           50.00    
    324      1      3    121       759.7           50.00    
    325      1      3    122       749.9           50.00    
    326      1      3    123       739.4           50.00    
    327      1      3    124       739.4           50.00    
    328      1      3    125       710.9           50.00    
    329      1      3    126       750.4           50.00    
    330      1      3    127       743.4           50.00    
    331      1      3    128       658.6           50.00    
    332      1      3    129       711.1           50.00    
    333      1      3    130       740.2           50.00    
    334      1      3    131       740.9           50.00    
    335      1      3    132       748.3           50.00    
    336      1      3    133       744.0           50.00    
    337      1      3    134       741.4           50.00    
    338      1      3    135       749.8           50.00    
    339      1      3    136       749.7           50.00    
    340      1      3    137       747.0           50.00    
    341      1      3    138       735.5           50.00    
    342      1      3    139       724.9           50.00    
    343      1      3    140       724.8           50.00    
    344      1      3    141       720.4           50.00    
    345      1      3    142       719.2           50.00    
    346      1      3    143       720.4           50.00    
    347      1      3    144       718.5           50.00    
    348      1      3    145       729.6           50.00    
    349      1      3    146       758.2           50.00    
    350      1      3    147       747.4           50.00    
    351      1      3    148       738.5           50.00    
    352      1      3    149       755.1           50.00    
    353      1      3    150       753.3           50.00    
    354      1      4      1       628.6           50.00    
    355      1      4      2       618.4           50.00    
    356      1      4      3       650.6           50.00    
    357      1      4      4       644.4           50.00    
    358      1      4      5       625.6           50.00    
    359      1      4      6       570.8           50.00    
    360      1      4      7       571.5           50.00    
    361      1      4      8       631.9           50.00    
    362      1      4      9       602.1           50.00    
    363      1      4     10       603.1           50.00    
    364      1      4     11       626.2           50.00    
    365      1      4     12       639.1           50.00    
    366      1      4     13       644.2           50.00    
    367      1      4     14       639.0           50.00    
    368      1      4     15       571.0           50.00    
    369      1      4     16       542.8           50.00    
    370      1      4     17       604.2           50.00    
    371      1      4     18       634.9           50.00    
    372      1      4     19       620.8           50.00    
    373      1      4     20       520.7           50.00    
    374      1      4     21       560.0           50.00    
    375      1      4     22       613.9           50.00    
    376      1      4     23       602.4           50.00    
    377      1      4     24       579.9           50.00    
    378      1      4     25       630.1           50.00    
    379      1      4     26       625.6           50.00    
    380      1      4     27       612.6           50.00    
    381      1      4     28       625.7           50.00    
    382      1      4     29       607.3           50.00    
    383      1      4     30       634.6           50.00    
    384      1      4     31       648.7           50.00    
    385      1      4     32       645.3           50.00    
    386      1      4     33       677.2           50.00    
    387      1      4     34       684.8           50.00    
    388      1      4     35       702.6           50.00    
    389      1      4     36       720.9           50.00    
    390      1      4     37       735.8           50.00    
    391      1      4     38       730.0           50.00    
    392      1      4     39       719.8           50.00    
    393      1      4     40       719.5           50.00    
    394      1      4     41       719.3           50.00    
    395      1      4     42       708.5           50.00    
    396      1      4     43       730.9           50.00    
    397      1      4     44       732.7           50.00    
    398      1      4     45       722.4           50.00    
    399      1      4     46       749.6           50.00    
    400      1      4     47       748.7           50.00    
    401      1      4     48       769.9           50.00    
    402      1      4     49       751.0           50.00    
    403      1      4     50       768.8           50.00    
    404      1      4     51       719.1           50.00    
    405      1      4     52       759.9           50.00    
    406      1      4     53       751.4           50.00    
    407      1      4     54       731.1           50.00    
    408      1      4     55       740.5           50.00    
    409      1      4     56       689.2           50.00    
    410      1      4     57       751.9           50.00    
    411      1      4     58       741.6           50.00    
    412      1      4     59       741.0           50.00    
    413      1      4     60       740.6           50.00    
    414      1      4     61       722.6           50.00    
    415      1      4     62       739.0           50.00    
    416      1      4     63       739.4           50.00    
    417      1      4     64       745.1           50.00    
    418      1      4     65       719.6           50.00    
    419      1      4     66       647.1           50.00    
    420      1      4     67       710.9           50.00    
    421      1      4     68       651.0           50.00    
    422      1      4     69       683.9           50.00    
    423      1      4     70       721.4           50.00    
    424      1      4     71       711.4           50.00    
    425      1      4     72       706.3           50.00    
    426      1      4     73       711.6           50.00    
    427      1      4     74       703.3           50.00    
    428      1      4     75       687.6           50.00    
    429      1      4     76       700.2           50.00    
    430      1      4    113       754.0           50.00    
    431      1      4    114       736.7           50.00    
    432      1      4    115       727.6           50.00    
    433      1      4    116       687.1           50.00    
    434      1      4    117       719.6           50.00    
    435      1      4    118       761.3           50.00    
    436      1      4    119       792.7           50.00    
    437      1      4    120       776.2           50.00    
    438      1      4    121       761.5           50.00    
    439      1      4    122       754.7           50.00    
    440      1      4    123       755.9           50.00    
    441      1      4    124       733.4           50.00    
    442      1      4    125       704.3           50.00    
    443      1      4    126       742.9           50.00    
    444      1      4    127       741.3           50.00    
    445      1      4    128       644.9           50.00    
    446      1      4    129       732.5           50.00    
    447      1      4    130       748.2           50.00    
    448      1      4    131       746.9           50.00    
    449      1      4    132       745.3           50.00    
    450      1      4    133       739.9           50.00    
    451      1      4    134       744.4           50.00    
    452      1      4    135       750.3           50.00    
    453      1      4    136       748.1           50.00    
    454      1      4    137       745.9           50.00    
    455      1      4    138       742.9           50.00    
    456      1      4    139       730.3           50.00    
    457      1      4    140       719.8           50.00    
    458      1      4    141       719.7           50.00    
    459      1      4    142       712.2           50.00    
    460      1      4    143       717.5           50.00    
    461      1      4    144       721.5           50.00    
    462      1      4    145       739.1           50.00    
    463      1      4    146       734.5           50.00    
    464      1      4    147       753.6           50.00    
    465      1      4    148       729.3           50.00    
    466      1      4    149       743.0           50.00    
    467      1      4    150       731.0           50.00    
    468      1      5      1       605.5           50.00    
    469      1      5      2       593.7           50.00    
    470      1      5      3       644.9           50.00    
    471      1      5      4       645.6           50.00    
    472      1      5      5       626.4           50.00    
    473      1      5      6       589.1           50.00    
    474      1      5      7       566.2           50.00    
    475      1      5      8       564.7           50.00    
    476      1      5      9       563.7           50.00    
    477      1      5     10       614.4           50.00    
    478      1      5     11       554.2           50.00    
    479      1      5     12       554.1           50.00    
    480      1      5     13       614.8           50.00    
    481      1      5     14       581.4           50.00    
    482      1      5     15       580.1           50.00    
    483      1      5     16       598.5           50.00    
    484      1      5     17       637.6           50.00    
    485      1      5     18       606.0           50.00    
    486      1      5     19       604.6           50.00    
    487      1      5     20       520.0           50.00    
    488      1      5     21       519.7           50.00    
    489      1      5     23       580.1           50.00    
    490      1      5     24       546.9           50.00    
    491      1      5     25       559.7           50.00    
    492      1      5     26       574.0           50.00    
    493      1      5     27       630.4           50.00    
    494      1      5     28       643.4           50.00    
    495      1      5     29       653.2           50.00    
    496      1      5     30       667.0           50.00    
    497      1      5     31       660.4           50.00    
    498      1      5     32       659.5           50.00    
    499      1      5     33       682.3           50.00    
    500      1      5     34       700.5           50.00    
    501      1      5     35       710.8           50.00    
    502      1      5     36       710.9           50.00    
    503      1      5     37       703.1           50.00    
    504      1      5     38       695.3           50.00    
    505      1      5     39       710.0           50.00    
    506      1      5     40       732.1           50.00    
    507      1      5     41       727.7           50.00    
    508      1      5     42       721.3           50.00    
    509      1      5     43       732.3           50.00    
    510      1      5     44       739.1           50.00    
    511      1      5     45       729.6           50.00    
    512      1      5     46       733.1           50.00    
    513      1      5     47       744.7           50.00    
    514      1      5     48       758.0           50.00    
    515      1      5     49       765.2           50.00    
    516      1      5     50       767.7           50.00    
    517      1      5     51       756.9           50.00    
    518      1      5     52       764.1           50.00    
    519      1      5     53       768.7           50.00    
    520      1      5     54       759.8           50.00    
    521      1      5     55       744.8           50.00    
    522      1      5     56       749.1           50.00    
    523      1      5     57       750.8           50.00    
    524      1      5     58       745.6           50.00    
    525      1      5     59       734.5           50.00    
    526      1      5     60       731.3           50.00    
    527      1      5     61       721.2           50.00    
    528      1      5     62       738.6           50.00    
    529      1      5     63       740.4           50.00    
    530      1      5     64       729.8           50.00    
    531      1      5     65       723.3           50.00    
    532      1      5     66       720.8           50.00    
    533      1      5     67       715.7           50.00    
    534      1      5     68       701.8           50.00    
    535      1      5     69       681.8           50.00    
    536      1      5     70       733.9           50.00    
    537      1      5     71       720.2           50.00    
    538      1      5     72       659.5           50.00    
    539      1      5     73       708.2           50.00    
    540      1      5     74       680.6           50.00    
    541      1      5     75       697.3           50.00    
    542      1      5     76       702.6           50.00    
    543      1      5    113       747.0           50.00    
    544      1      5    114       752.3           50.00    
    545      1      5    115       749.0           50.00    
    546      1      5    116       699.6           50.00    
    547      1      5    117       711.9           50.00    
    548      1      5    118       729.3           50.00    
    549      1      5    119       797.9           50.00    
    550      1      5    120       787.8           50.00    
    551      1      5    121       770.0           50.00    
    552      1      5    122       761.2           50.00    
    553      1      5    123       750.7           50.00    
    554      1      5    124       739.6           50.00    
    555      1      5    125       726.6           50.00    
    556      1      5    126       737.2           50.00    
    557      1      5    127       702.6           50.00    
    558      1      5    128       651.4           50.00    
    559      1      5    129       727.7           50.00    
    560      1      5    130       743.6           50.00    
    561      1      5    131       750.4           50.00    
    562      1      5    132       741.2           50.00    
    563      1      5    133       741.4           50.00    
    564      1      5    134       744.0           50.00    
    565      1      5    135       739.8           50.00    
    566      1      5    136       748.1           50.00    
    567      1      5    137       749.1           50.00    
    568      1      5    138       744.0           50.00    
    569      1      5    139       730.3           50.00    
    570      1      5    140       729.8           50.00    
    571      1      5    141       723.8           50.00    
    572      1      5    142       704.2           50.00    
    573      1      5    143       714.7           50.00    
    574      1      5    144       719.8           50.00    
    575      1      5    145       725.9           50.00    
    576      1      5    146       732.0           50.00    
    577      1      5    147       739.1           50.00    
    578      1      5    148       724.6           50.00    
    579      1      5    149       750.5           50.00    
    580      1      5    150       732.5           50.00    
    581      1      6      1       653.4           50.00    
    582      1      6      2       612.8           50.00    
    583      1      6      3       616.5           50.00    
    584      1      6      4       579.8           50.00    
    585      1      6      5       629.6           50.00    
    586      1      6      6       573.3           50.00    
    587      1      6      7       632.2           50.00    
    588      1      6      8       636.9           50.00    
    589      1      6      9       633.6           50.00    
    590      1      6     10       638.5           50.00    
    591      1      6     11       597.6           50.00    
    592      1      6     12       558.0           50.00    
    593      1      6     13       591.2           50.00    
    594      1      6     14       538.7           50.00    
    595      1      6     15       587.2           50.00    
    596      1      6     16       638.4           50.00    
    597      1      6     17       640.3           50.00    
    598      1      6     18       636.1           50.00    
    599      1      6     25       612.2           50.00    
    600      1      6     26       586.1           50.00    
    601      1      6     27       626.3           50.00    
    602      1      6     28       640.3           50.00    
    603      1      6     29       656.0           50.00    
    604      1      6     30       668.0           50.00    
    605      1      6     31       678.6           50.00    
    606      1      6     32       682.0           50.00    
    607      1      6     33       662.5           50.00    
    608      1      6     34       669.5           50.00    
    609      1      6     35       678.9           50.00    
    610      1      6     36       658.0           50.00    
    611      1      6     37       726.9           50.00    
    612      1      6     38       729.4           50.00    
    613      1      6     39       731.7           50.00    
    614      1      6     40       736.6           50.00    
    615      1      6     41       733.0           50.00    
    616      1      6     42       734.6           50.00    
    617      1      6     43       759.4           50.00    
    618      1      6     44       747.4           50.00    
    619      1      6     45       742.3           50.00    
    620      1      6     46       735.7           50.00    
    621      1      6     47       745.7           50.00    
    622      1      6     48       751.3           50.00    
    623      1      6     49       752.8           50.00    
    624      1      6     50       765.4           50.00    
    625      1      6     51       773.6           50.00    
    626      1      6     52       782.7           50.00    
    627      1      6     53       750.7           50.00    
    628      1      6     54       732.6           50.00    
    629      1      6     55       749.7           50.00    
    630      1      6     56       739.8           50.00    
    631      1      6     57       740.3           50.00    
    632      1      6     58       729.8           50.00    
    633      1      6     59       722.0           50.00    
    634      1      6     60       724.1           50.00    
    635      1      6     61       700.2           50.00    
    636      1      6     62       724.7           50.00    
    637      1      6     63       721.1           50.00    
    638      1      6     64       732.7           50.00    
    639      1      6     65       726.3           50.00    
    640      1      6     66       728.7           50.00    
    641      1      6     67       723.8           50.00    
    642      1      6     68       701.8           50.00    
    643      1      6     69       708.6           50.00    
    644      1      6     70       720.5           50.00    
    645      1      6     71       688.2           50.00    
    646      1      6     72       662.8           50.00    
    647      1      6     73       688.2           50.00    
    648      1      6     74       691.3           50.00    
    649      1      6     75       690.8           50.00    
    650      1      6     76       685.8           50.00    
    651      1      6    114       735.1           50.00    
    652      1      6    115       747.8           50.00    
    653      1      6    116       739.0           50.00    
    654      1      6    117       686.1           50.00    
    655      1      6    118       726.9           50.00    
    656      1      6    119       781.4           50.00    
    657      1      6    120       789.6           50.00    
    658      1      6    121       775.7           50.00    
    659      1      6    122       755.8           50.00    
    660      1      6    123       719.2           50.00    
    661      1      6    124       721.8           50.00    
    662      1      6    125       736.7           50.00    
    663      1      6    126       725.1           50.00    
    664      1      6    127       693.8           50.00    
    665      1      6    128       730.0           50.00    
    666      1      6    129       700.6           50.00    
    667      1      6    130       727.7           50.00    
    668      1      6    131       730.6           50.00    
    669      1      6    132       708.6           50.00    
    670      1      6    133       731.6           50.00    
    671      1      6    134       738.2           50.00    
    672      1      6    135       751.5           50.00    
    673      1      6    136       739.9           50.00    
    674      1      6    137       740.3           50.00    
    675      1      6    138       740.5           50.00    
    676      1      6    139       742.4           50.00    
    677      1      6    140       730.0           50.00    
    678      1      6    141       718.9           50.00    
    679      1      6    142       719.9           50.00    
    680      1      6    143       729.2           50.00    
    681      1      6    144       727.7           50.00    
    682      1      6    145       728.2           50.00    
    683      1      6    146       720.0           50.00    
    684      1      6    147       720.5           50.00    
    685      1      6    148       741.5           50.00    
    686      1      6    149       730.8           50.00    
    687      1      6    150       707.6           50.00    
    688      1      7      1       648.6           50.00    
    689      1      7      2       618.2           50.00    
    690      1      7      3       603.0           50.00    
    691      1      7      4       593.1           50.00    
    692      1      7      5       612.2           50.00    
    693      1      7      6       630.3           50.00    
    694      1      7      7       599.7           50.00    
    695      1      7      8       628.2           50.00    
    696      1      7      9       633.2           50.00    
    697      1      7     10       635.3           50.00    
    698      1      7     11       635.0           50.00    
    699      1      7     12       554.7           50.00    
    700      1      7     13       552.2           50.00    
    701      1      7     14       549.6           50.00    
    702      1      7     15       660.0           50.00    
    703      1      7     30       630.8           50.00    
    704      1      7     31       658.7           50.00    
    705      1      7     32       602.3           50.00    
    706      1      7     33       618.0           50.00    
    707      1      7     34       641.6           50.00    
    708      1      7     35       655.1           50.00    
    709      1      7     36       721.8           50.00    
    710      1      7     37       721.0           50.00    
    711      1      7     38       732.7           50.00    
    712      1      7     39       735.4           50.00    
    713      1      7     40       746.1           50.00    
    714      1      7     41       745.2           50.00    
    715      1      7     42       762.3           50.00    
    716      1      7     43       766.3           50.00    
    717      1      7     44       760.0           50.00    
    718      1      7     45       738.8           50.00    
    719      1      7     46       747.2           50.00    
    720      1      7     47       749.2           50.00    
    721      1      7     48       758.0           50.00    
    722      1      7     49       770.2           50.00    
    723      1      7     50       772.3           50.00    
    724      1      7     51       782.1           50.00    
    725      1      7     52       749.3           50.00    
    726      1      7     53       754.3           50.00    
    727      1      7     54       733.3           50.00    
    728      1      7     55       740.9           50.00    
    729      1      7     56       729.5           50.00    
    730      1      7     57       718.9           50.00    
    731      1      7     58       721.0           50.00    
    732      1      7     59       682.5           50.00    
    733      1      7     60       704.7           50.00    
    734      1      7     61       702.9           50.00    
    735      1      7     62       714.3           50.00    
    736      1      7     63       719.7           50.00    
    737      1      7     64       708.5           50.00    
    738      1      7     65       715.1           50.00    
    739      1      7     66       724.3           50.00    
    740      1      7     67       720.5           50.00    
    741      1      7     68       697.8           50.00    
    742      1      7     69       700.3           50.00    
    743      1      7     70       701.2           50.00    
    744      1      7     71       683.3           50.00    
    745      1      7     72       630.6           50.00    
    746      1      7     73       681.4           50.00    
    747      1      7     74       628.5           50.00    
    748      1      7     75       629.4           50.00    
    749      1      7     76       646.5           50.00    
    750      1      7    114       691.3           50.00    
    751      1      7    115       739.8           50.00    
    752      1      7    116       675.9           50.00    
    753      1      7    117       714.2           50.00    
    754      1      7    118       770.2           50.00    
    755      1      7    119       756.2           50.00    
    756      1      7    120       787.4           50.00    
    757      1      7    121       770.3           50.00    
    758      1      7    122       763.3           50.00    
    759      1      7    123       736.0           50.00    
    760      1      7    124       727.3           50.00    
    761      1      7    125       659.3           50.00    
    762      1      7    130       741.7           50.00    
    763      1      7    131       733.6           50.00    
    764      1      7    132       722.4           50.00    
    765      1      7    133       734.3           50.00    
    766      1      7    134       743.6           50.00    
    767      1      7    135       741.0           50.00    
    768      1      7    136       720.4           50.00    
    769      1      7    139       742.0           50.00    
    770      1      7    140       738.5           50.00    
    771      1      7    141       720.2           50.00    
    772      1      7    142       715.3           50.00    
    773      1      7    143       729.9           50.00    
    774      1      7    145       730.2           50.00    
    775      1      7    146       670.3           50.00    
    776      1      7    147       683.9           50.00    
    777      1      7    148       674.5           50.00    
    778      1      7    149       706.0           50.00    
    779      1      7    150       711.6           50.00    
    780      1      8      1       694.3           50.00    
    781      1      8      2       599.0           50.00    
    782      1      8      3       586.1           50.00    
    783      1      8      4       645.3           50.00    
    784      1      8      5       637.9           50.00    
    785      1      8      6       636.7           50.00    
    786      1      8      7       622.2           50.00    
    787      1      8      8       635.2           50.00    
    788      1      8      9       637.3           50.00    
    789      1      8     10       637.3           50.00    
    790      1      8     11       622.7           50.00    
    791      1      8     12       644.9           50.00    
    792      1      8     13       559.2           50.00    
    793      1      8     14       670.8           50.00    
    794      1      8     15       688.0           50.00    
    795      1      8     30       657.2           50.00    
    796      1      8     31       671.5           50.00    
    797      1      8     32       597.1           50.00    
    798      1      8     33       702.8           50.00    
    799      1      8     34       700.0           50.00    
    800      1      8     35       709.8           50.00    
    801      1      8     36       716.0           50.00    
    802      1      8     37       730.5           50.00    
    803      1      8     38       737.1           50.00    
    804      1      8     39       721.9           50.00    
    805      1      8     40       739.7           50.00    
    806      1      8     41       751.0           50.00    
    807      1      8     42       766.9           50.00    
    808      1      8     43       762.2           50.00    
    809      1      8     44       760.8           50.00    
    810      1      8     45       754.2           50.00    
    811      1      8     46       755.6           50.00    
    812      1      8     47       759.7           50.00    
    813      1      8     48       764.4           50.00    
    814      1      8     49       758.9           50.00    
    815      1      8     50       763.9           50.00    
    816      1      8     51       763.8           50.00    
    817      1      8     52       744.8           50.00    
    818      1      8     53       707.1           50.00    
    819      1      8     54       722.0           50.00    
    820      1      8     55       717.0           50.00    
    821      1      8     56       711.4           50.00    
    822      1      8     57       710.7           50.00    
    823      1      8     58       708.7           50.00    
    824      1      8     59       705.7           50.00    
    825      1      8     60       699.2           50.00    
    826      1      8     61       637.9           50.00    
    827      1      8     62       623.9           50.00    
    828      1      8     63       719.0           50.00    
    829      1      8     64       687.2           50.00    
    830      1      8     65       684.3           50.00    
    831      1      8     66       720.9           50.00    
    832      1      8     67       710.4           50.00    
    833      1      8     68       667.5           50.00    
    834      1      8     69       610.6           50.00    
    835      1      8     70       682.4           50.00    
    836      1      8     71       653.0           50.00    
    837      1      8     72       600.2           50.00    
    838      1      8     73       670.2           50.00    
    839      1      8     74       606.8           50.00    
    840      1      8     75       629.2           50.00    
    841      1      8     76       585.9           50.00    
    842      1      8     77       653.5           50.00    
    843      1      8    115       721.2           50.00    
    844      1      8    116       662.0           50.00    
    845      1      8    117       676.3           50.00    
    846      1      8    118       684.8           50.00    
    847      1      8    119       722.2           50.00    
    848      1      8    120       772.5           50.00    
    849      1      8    121       723.1           50.00    
    850      1      8    122       662.0           50.00    
    851      1      8    123       650.6           50.00    
    852      1      8    130       684.1           50.00    
    853      1      8    131       711.5           50.00    
    854      1      8    132       740.1           50.00    
    855      1      8    133       754.1           50.00    
    856      1      8    134       749.8           50.00    
    857      1      8    135       729.9           50.00    
    858      1      8    139       736.1           50.00    
    859      1      8    140       722.9           50.00    
    860      1      8    141       692.7           50.00    
    861      1      8    142       723.8           50.00    
    862      1      8    147       727.8           50.00    
    863      1      8    148       723.3           50.00    
    864      1      8    149       719.7           50.00    
    865      1      8    150       679.9           50.00    
    866      1      9      1       691.5           50.00    
    867      1      9      2       667.7           50.00    
    868      1      9      3       637.9           50.00    
    869      1      9      4       651.9           50.00    
    870      1      9      5       641.6           50.00    
    871      1      9      6       636.0           50.00    
    872      1      9      7       638.5           50.00    
    873      1      9      8       619.8           50.00    
    874      1      9      9       639.6           50.00    
    875      1      9     10       638.9           50.00    
    876      1      9     11       639.3           50.00    
    877      1      9     12       647.8           50.00    
    878      1      9     13       648.7           50.00    
    879      1      9     14       671.0           50.00    
    880      1      9     27       595.7           50.00    
    881      1      9     28       674.3           50.00    
    882      1      9     29       707.2           50.00    
    883      1      9     30       639.3           50.00    
    884      1      9     31       705.6           50.00    
    885      1      9     32       717.1           50.00    
    886      1      9     33       734.0           50.00    
    887      1      9     34       715.0           50.00    
    888      1      9     35       671.3           50.00    
    889      1      9     36       720.7           50.00    
    890      1      9     37       712.6           50.00    
    891      1      9     38       734.9           50.00    
    892      1      9     39       741.1           50.00    
    893      1      9     40       752.3           50.00    
    894      1      9     41       762.3           50.00    
    895      1      9     42       768.9           50.00    
    896      1      9     43       770.3           50.00    
    897      1      9     44       770.0           50.00    
    898      1      9     45       763.1           50.00    
    899      1      9     46       752.8           50.00    
    900      1      9     47       750.3           50.00    
    901      1      9     48       758.2           50.00    
    902      1      9     49       744.5           50.00    
    903      1      9     50       759.8           50.00    
    904      1      9     51       750.4           50.00    
    905      1      9     52       729.3           50.00    
    906      1      9     53       721.5           50.00    
    907      1      9     54       717.9           50.00    
    908      1      9     55       709.2           50.00    
    909      1      9     56       704.2           50.00    
    910      1      9     57       712.0           50.00    
    911      1      9     58       699.9           50.00    
    912      1      9     59       687.5           50.00    
    913      1      9     60       616.3           50.00    
    914      1      9     61       627.4           50.00    
    915      1      9     62       701.1           50.00    
    916      1      9     63       700.9           50.00    
    917      1      9     64       629.9           50.00    
    918      1      9     65       702.7           50.00    
    919      1      9     66       715.6           50.00    
    920      1      9     67       692.1           50.00    
    921      1      9     68       693.6           50.00    
    922      1      9     69       657.5           50.00    
    923      1      9     70       639.5           50.00    
    924      1      9     71       586.4           50.00    
    925      1      9     72       603.6           50.00    
    926      1      9     73       652.4           50.00    
    927      1      9     74       631.5           50.00    
    928      1      9     75       551.6           50.00    
    929      1      9     76       650.0           50.00    
    930      1      9     77       647.8           50.00    
    931      1      9     78       642.5           50.00    
    932      1      9    115       746.6           50.00    
    933      1      9    116       697.1           50.00    
    934      1      9    117       676.0           50.00    
    935      1      9    118       707.8           50.00    
    936      1      9    119       655.1           50.00    
    937      1      9    120       773.2           50.00    
    938      1      9    121       672.7           50.00    
    939      1      9    122       631.4           50.00    
    940      1      9    123       628.5           50.00    
    941      1      9    129       725.1           50.00    
    942      1      9    130       664.8           50.00    
    943      1      9    131       643.2           50.00    
    944      1      9    133       655.0           50.00    
    945      1      9    134       659.2           50.00    
    946      1      9    135       665.6           50.00    
    947      1      9    139       740.2           50.00    
    948      1      9    140       660.7           50.00    
    949      1      9    141       675.8           50.00    
    950      1      9    149       749.9           50.00    
    951      1      9    150       737.6           50.00    
    952      1     10      1       692.9           50.00    
    953      1     10      2       683.6           50.00    
    954      1     10      3       696.6           50.00    
    955      1     10      4       660.2           50.00    
    956      1     10      5       649.0           50.00    
    957      1     10      6       613.5           50.00    
    958      1     10      7       638.5           50.00    
    959      1     10      8       640.0           50.00    
    960      1     10      9       635.7           50.00    
    961      1     10     10       643.9           50.00    
    962      1     10     11       657.2           50.00    
    963      1     10     12       663.5           50.00    
    964      1     10     13       647.8           50.00    
    965      1     10     14       627.6           50.00    
    966      1     10     27       683.0           50.00    
    967      1     10     28       680.3           50.00    
    968      1     10     29       709.2           50.00    
    969      1     10     30       675.7           50.00    
    970      1     10     31       729.7           50.00    
    971      1     10     32       731.4           50.00    
    972      1     10     33       709.0           50.00    
    973      1     10     34       639.9           50.00    
    974      1     10     35       653.7           50.00    
    975      1     10     36       734.2           50.00    
    976      1     10     37       728.8           50.00    
    977      1     10     38       739.4           50.00    
    978      1     10     39       751.1           50.00    
    979      1     10     40       757.0           50.00    
    980      1     10     41       776.7           50.00    
    981      1     10     42       776.0           50.00    
    982      1     10     43       771.9           50.00    
    983      1     10     44       761.6           50.00    
    984      1     10     45       757.1           50.00    
    985      1     10     46       753.8           50.00    
    986      1     10     47       745.9           50.00    
    987      1     10     48       717.2           50.00    
    988      1     10     49       741.6           50.00    
    989      1     10     50       743.7           50.00    
    990      1     10     51       736.0           50.00    
    991      1     10     52       710.0           50.00    
    992      1     10     53       720.4           50.00    
    993      1     10     54       705.3           50.00    
    994      1     10     55       705.0           50.00    
    995      1     10     56       704.7           50.00    
    996      1     10     57       708.9           50.00    
    997      1     10     58       705.1           50.00    
    998      1     10     59       654.2           50.00    
    999      1     10     60       688.3           50.00    
   1000      1     10     61       579.0           50.00    
   1001      1     10     62       698.4           50.00    
   1002      1     10     63       683.2           50.00    
   1003      1     10     64       647.1           50.00    
   1004      1     10     65       700.2           50.00    
   1005      1     10     66       700.3           50.00    
   1006      1     10     67       680.0           50.00    
   1007      1     10     68       686.8           50.00    
   1008      1     10     69       681.0           50.00    
   1009      1     10     70       574.9           50.00    
   1010      1     10     71       642.8           50.00    
   1011      1     10     72       582.2           50.00    
   1012      1     10     73       656.6           50.00    
   1013      1     10     74       634.8           50.00    
   1014      1     10     75       607.3           50.00    
   1015      1     10     76       639.7           50.00    
   1016      1     10     77       634.4           50.00    
   1017      1     10     78       630.1           50.00    
   1018      1     10    116       748.7           50.00    
   1019      1     10    117       739.0           50.00    
   1020      1     10    118       639.3           50.00    
   1021      1     10    119       653.9           50.00    
   1022      1     10    120       729.4           50.00    
   1023      1     10    121       677.2           50.00    
   1024      1     10    122       656.8           50.00    
   1025      1     10    123       714.8           50.00    
   1026      1     10    124       665.6           50.00    
   1027      1     10    125       671.3           50.00    
   1028      1     10    128       698.6           50.00    
   1029      1     10    129       722.9           50.00    
   1030      1     10    130       721.7           50.00    
   1031      1     10    131       741.4           50.00    
   1032      1     10    132       720.0           50.00    
   1033      1     10    133       709.8           50.00    
   1034      1     10    134       731.9           50.00    
   1035      1     10    135       731.9           50.00    
   1036      1     10    140       730.8           50.00    
   1037      1     10    141       726.5           50.00    
   1038      1     11      1       675.7           50.00    
   1039      1     11      2       693.7           50.00    
   1040      1     11      3       707.3           50.00    
   1041      1     11      4       661.7           50.00    
   1042      1     11      5       647.6           50.00    
   1043      1     11      6       641.1           50.00    
   1044      1     11      7       636.0           50.00    
   1045      1     11      8       646.4           50.00    
   1046      1     11      9       647.0           50.00    
   1047      1     11     10       652.4           50.00    
   1048      1     11     11       665.9           50.00    
   1049      1     11     12       631.6           50.00    
   1050      1     11     13       630.4           50.00    
   1051      1     11     27       645.3           50.00    
   1052      1     11     28       672.8           50.00    
   1053      1     11     29       721.2           50.00    
   1054      1     11     30       702.5           50.00    
   1055      1     11     31       679.1           50.00    
   1056      1     11     32       738.4           50.00    
   1057      1     11     33       737.7           50.00    
   1058      1     11     34       718.8           50.00    
   1059      1     11     35       724.2           50.00    
   1060      1     11     36       747.0           50.00    
   1061      1     11     37       749.2           50.00    
   1062      1     11     38       753.9           50.00    
   1063      1     11     39       745.5           50.00    
   1064      1     11     40       753.2           50.00    
   1065      1     11     41       771.3           50.00    
   1066      1     11     42       759.3           50.00    
   1067      1     11     43       761.6           50.00    
   1068      1     11     44       742.6           50.00    
   1069      1     11     45       734.4           50.00    
   1070      1     11     46       740.4           50.00    
   1071      1     11     47       658.3           50.00    
   1072      1     11     48       699.3           50.00    
   1073      1     11     49       722.5           50.00    
   1074      1     11     50       722.2           50.00    
   1075      1     11     51       720.5           50.00    
   1076      1     11     52       675.4           50.00    
   1077      1     11     53       720.6           50.00    
   1078      1     11     54       686.7           50.00    
   1079      1     11     55       700.8           50.00    
   1080      1     11     56       700.5           50.00    
   1081      1     11     57       666.9           50.00    
   1082      1     11     58       685.4           50.00    
   1083      1     11     59       678.2           50.00    
   1084      1     11     60       592.7           50.00    
   1085      1     11     61       669.4           50.00    
   1086      1     11     62       673.1           50.00    
   1087      1     11     63       660.0           50.00    
   1088      1     11     64       665.0           50.00    
   1089      1     11     65       665.4           50.00    
   1090      1     11     66       671.5           50.00    
   1091      1     11     67       641.7           50.00    
   1092      1     11     68       646.7           50.00    
   1093      1     11     69       653.6           50.00    
   1094      1     11     70       630.8           50.00    
   1095      1     11     71       617.7           50.00    
   1096      1     11     72       585.4           50.00    
   1097      1     11     73       631.6           50.00    
   1098      1     11     74       620.7           50.00    
   1099      1     11     75       617.2           50.00    
   1100      1     11     76       597.4           50.00    
   1101      1     11     77       636.3           50.00    
   1102      1     11     78       644.1           50.00    
   1103      1     11     79       644.3           50.00    
   1104      1     11    116       747.9           50.00    
   1105      1     11    117       736.7           50.00    
   1106      1     11    118       650.3           50.00    
   1107      1     11    119       730.8           50.00    
   1108      1     11    120       664.8           50.00    
   1109      1     11    121       669.4           50.00    
   1110      1     11    122       722.4           50.00    
   1111      1     11    123       757.9           50.00    
   1112      1     11    124       755.8           50.00    
   1113      1     11    125       700.4           50.00    
   1114      1     11    126       649.0           50.00    
   1115      1     11    127       648.5           50.00    
   1116      1     11    128       649.9           50.00    
   1117      1     11    129       710.6           50.00    
   1118      1     11    130       749.2           50.00    
   1119      1     11    131       759.6           50.00    
   1120      1     11    132       756.5           50.00    
   1121      1     11    133       747.4           50.00    
   1122      1     11    134       771.4           50.00    
   1123      1     11    135       725.7           50.00    
   1124      1     11    141       751.4           50.00    
   1125      1     12      1       687.6           50.00    
   1126      1     12      2       722.9           50.00    
   1127      1     12      3       716.8           50.00    
   1128      1     12      4       654.4           50.00    
   1129      1     12      5       644.8           50.00    
   1130      1     12      6       645.5           50.00    
   1131      1     12      7       639.6           50.00    
   1132      1     12      8       652.2           50.00    
   1133      1     12      9       640.9           50.00    
   1134      1     12     10       637.1           50.00    
   1135      1     12     11       644.3           50.00    
   1136      1     12     12       642.7           50.00    
   1137      1     12     13       630.0           50.00    
   1138      1     12     27       700.5           50.00    
   1139      1     12     28       678.7           50.00    
   1140      1     12     29       705.7           50.00    
   1141      1     12     30       722.4           50.00    
   1142      1     12     31       729.7           50.00    
   1143      1     12     32       747.0           50.00    
   1144      1     12     33       761.6           50.00    
   1145      1     12     34       733.3           50.00    
   1146      1     12     35       750.0           50.00    
   1147      1     12     36       752.4           50.00    
   1148      1     12     37       753.6           50.00    
   1149      1     12     38       757.7           50.00    
   1150      1     12     41       769.5           50.00    
   1151      1     12     42       754.5           50.00    
   1152      1     12     43       739.5           50.00    
   1153      1     12     44       695.7           50.00    
   1154      1     12     45       730.4           50.00    
   1155      1     12     46       734.6           50.00    
   1156      1     12     47       671.5           50.00    
   1157      1     12     48       711.4           50.00    
   1158      1     12     49       693.7           50.00    
   1159      1     12     50       715.2           50.00    
   1160      1     12     51       709.0           50.00    
   1161      1     12     52       647.6           50.00    
   1162      1     12     53       701.8           50.00    
   1163      1     12     54       693.1           50.00    
   1164      1     12     55       691.4           50.00    
   1165      1     12     56       689.7           50.00    
   1166      1     12     57       629.9           50.00    
   1167      1     12     58       671.1           50.00    
   1168      1     12     59       637.8           50.00    
   1169      1     12     60       635.4           50.00    
   1170      1     12     61       638.2           50.00    
   1171      1     12     62       655.9           50.00    
   1172      1     12     63       643.3           50.00    
   1173      1     12     64       653.9           50.00    
   1174      1     12     65       601.5           50.00    
   1175      1     12     66       648.5           50.00    
   1176      1     12     67       641.6           50.00    
   1177      1     12     68       638.9           50.00    
   1178      1     12     69       663.8           50.00    
   1179      1     12     70       640.5           50.00    
   1180      1     12     71       567.3           50.00    
   1181      1     12     72       621.7           50.00    
   1182      1     12     73       631.4           50.00    
   1183      1     12     74       635.6           50.00    
   1184      1     12     75       546.8           50.00    
   1185      1     12     76       631.2           50.00    
   1186      1     12     77       637.9           50.00    
   1187      1     12     78       629.1           50.00    
   1188      1     12    116       745.9           50.00    
   1189      1     12    117       731.5           50.00    
   1190      1     12    118       711.7           50.00    
   1191      1     12    119       677.0           50.00    
   1192      1     12    120       619.8           50.00    
   1193      1     12    121       674.2           50.00    
   1194      1     12    122       739.6           50.00    
   1195      1     12    123       772.2           50.00    
   1196      1     12    124       762.2           50.00    
   1197      1     12    125       758.3           50.00    
[...]
        715.2       709.5       703.0       695.4       685.6       672.9       655.4       634.9       625.6       604.9    
        599.9       595.5       596.2       597.0       600.3       605.9       605.8       602.0       606.4       617.3    
        625.2       632.6       641.3       649.5       657.6       664.6       669.7       671.1       672.7       673.7    
        677.8       680.7       681.1       679.8       678.0       676.1       674.2       672.5       670.9       669.9    
        669.4       669.1       669.2       669.5       670.1       670.6       671.1       671.5       671.8       671.9    
  92    465.6       464.1       461.8       457.3       443.0       445.0       446.8       449.5       454.3       459.3    
        463.5       466.9       469.5       471.5       472.8       473.5       473.8       474.0       473.1       469.8    
        467.6       466.2       465.6       465.1       465.3       466.6       469.7       471.5       472.9       473.7    
        473.7       474.9       474.4       474.2       473.7       474.2       474.7       475.1       477.1       479.7    
        482.3       483.6       485.4       487.9       493.1       497.5       502.8       506.0       511.8       516.3    
        521.8       520.6       518.6       515.9       511.2       506.1       500.8       497.6       495.4       492.8    
        491.1       490.9       497.2       502.7       508.8       514.4       519.5       524.7       529.6       533.8    
        537.6       541.0       543.7       545.8       547.6       548.7       549.3       550.8       554.3       558.1    
        561.9       565.8       568.5       572.7       577.9       583.3       594.8       611.3       624.7       637.5    
        658.8       676.7       694.6       712.9       729.9       734.2       732.9       729.8       726.2       721.9    
        717.2       712.1       706.6       700.7       694.0       686.3       677.5       667.7       661.4       639.9    
        632.0       625.8       622.7       620.3       619.6       621.4       621.2       621.7       626.3       633.6    
        640.9       648.6       657.3       666.2       673.9       679.0       682.9       686.5       687.1       685.2    
        684.3       689.0       689.2       687.4       684.9       681.9       679.1       676.6       674.7       673.2    
        672.3       671.8       671.7       672.0       672.4       672.8       673.3       673.6       673.9       674.0    
  93    461.6       457.8       453.8       449.0       441.9       443.4       450.6       455.6       460.2       464.5    
        468.3       471.5       474.1       476.0       477.5       478.2       478.9       479.4       479.6       480.1    
        478.9       476.5       472.2       469.8       471.7       473.3       473.9       475.5       476.9       477.9    
        478.9       477.5       477.4       477.1       476.5       475.5       475.5       477.6       479.9       482.3    
        484.8       487.1       489.7       493.2       499.3       507.6       512.0       516.6       521.5       525.1    
        529.6       529.9       525.9       520.3       516.6       512.6       503.4       499.4       495.2       492.0    
        490.2       490.4       497.4       503.1       509.2       514.8       520.1       525.1       529.9       534.2    
        537.9       541.3       544.1       546.2       547.9       548.9       550.8       554.3       558.4       563.9    
        568.6       571.8       576.3       582.1       589.9       598.9       615.7       638.9       662.6       677.7    
        689.5       704.3       720.2       734.7       742.3       739.1       736.8       733.2       729.2       724.6    
        719.6       714.4       709.3       704.5       699.4       694.0       688.7       683.3       679.8       675.3    
        661.9       651.8       644.3       639.8       636.3       635.8       636.1       638.0       642.2       648.0    
        655.4       663.4       672.5       683.6       692.5       697.9       701.6       704.2       706.3       709.0    
        702.7       700.1       698.2       695.4       691.7       687.0       683.2       680.3       677.6       675.6    
        674.4       673.8       673.7       674.0       674.4       674.8       675.2       675.5       675.8       675.9    
  94    460.7       452.1       447.1       442.8       444.7       450.1       455.8       460.6       465.0       469.1    
        472.5       475.4       477.7       479.7       481.2       481.8       482.1       482.9       483.8       487.2    
        489.7       488.6       483.6       481.3       483.8       483.4       479.9       477.1       478.3       479.8    
        481.0       479.7       479.5       478.8       478.5       478.2       478.7       480.6       483.2       485.6    
        487.9       491.2       494.8       500.8       509.6       515.7       521.6       525.9       527.0       533.0    
        539.9       538.8       538.9       529.2       526.1       513.4       504.2       498.9       495.4       492.0    
        489.9       490.1       496.0       502.9       509.5       516.2       521.6       525.8       530.2       534.4    
        538.7       541.6       544.5       546.9       549.6       550.8       553.8       557.6       562.1       567.6    
        573.8       578.1       584.1       591.1       600.5       612.7       638.6       667.1       694.3       714.8    
        712.9       726.9       743.4       749.3       745.9       742.8       740.1       736.8       732.4       727.7    
        722.6       717.2       712.1       707.8       703.7       699.5       695.6       692.5       691.1       694.1    
        686.8       673.4       662.4       655.7       651.4       649.1       649.0       651.0       655.0       660.8    
        669.0       678.5       689.3       702.9       711.9       717.5       720.2       721.3       724.2       724.8    
        720.3       711.6       707.2       703.6       699.2       691.0       686.1       683.0       679.5       677.1    
        675.7       675.0       674.9       675.6       676.2       676.6       677.0       677.3       677.5       677.7    
  95    466.1       443.5       439.7       442.9       450.2       455.5       460.6       465.2       469.3       472.9    
        475.9       478.4       480.7       482.9       483.9       484.2       485.3       486.0       486.9       490.7    
        492.7       493.2       491.1       493.1       494.2       495.0       493.7       489.7       483.9       481.7    
        482.3       481.8       481.4       482.4       482.1       483.4       486.3       488.3       489.1       490.1    
        491.7       496.6       501.2       508.1       516.7       521.8       526.0       529.3       531.8       537.0    
        544.0       543.6       543.2       535.4       526.8       513.9       505.0       499.6       497.0       492.6    
        490.1       490.3       496.9       503.8       510.6       517.1       522.5       526.7       530.9       534.7    
        538.4       541.8       545.7       548.0       551.4       553.3       556.6       560.7       565.4       571.0    
        578.1       584.1       591.8       600.3       612.2       630.5       662.4       693.3       727.9       758.6    
        743.4       743.0       756.6       753.0       749.3       745.9       742.9       739.8       735.5       731.0    
        725.8       720.4       715.2       711.1       707.8       704.3       701.2       698.7       697.4       697.9    
        698.4       690.1       675.6       666.9       662.1       659.7       659.7       662.0       666.3       672.5    
        682.7       694.0       709.0       723.8       736.9       739.5       738.9       736.3       734.2       729.3    
        724.5       719.0       714.9       711.8       709.5       702.1       687.3       685.5       683.7       681.6    
        681.3       678.7       677.4       676.9       677.6       678.1       678.5       678.8       679.0       679.2    
  96    448.7       449.4       449.4       452.0       456.3       460.8       465.2       469.2       472.7       475.9    
        478.5       480.9       483.3       485.1       485.6       486.5       487.7       488.1       489.4       491.8    
        493.0       495.8       499.5       500.0       500.8       503.8       501.7       497.3       491.3       489.8    
        486.6       487.2       489.3       491.3       489.4       489.3       492.1       494.7       495.3       495.9    
        498.7       503.6       507.4       513.4       522.3       528.2       530.6       533.6       536.0       540.4    
        546.2       549.5       552.7       541.0       534.6       516.2       505.5       500.4       497.1       494.2    
        493.6       493.4       499.8       506.2       513.2       518.4       523.8       527.6       532.1       535.1    
        538.5       541.8       545.2       548.2       551.6       555.0       559.2       563.6       568.3       574.1    
        581.4       589.5       598.4       609.5       623.7       646.9       676.9       709.9       754.8       789.3    
        778.1       762.4       759.7       756.4       752.7       749.1       746.0       742.5       738.3       734.0    
        729.1       723.6       718.4       714.1       711.2       708.5       705.9       703.7       702.0       700.9    
        699.4       698.3       686.2       675.2       669.8       667.7       667.8       671.3       676.6       684.6    
        696.6       711.7       729.1       746.0       754.6       752.9       749.4       744.9       738.6       733.5    
        728.9       724.6       721.1       718.6       717.6       719.5       703.7       694.3       691.3       688.5    
        687.8       684.4       681.3       679.1       678.8       679.4       679.8       680.1       680.3       680.5    
  97    454.6       455.3       456.4       458.5       461.7       465.3       469.0       472.2       475.4       478.2    
        480.6       483.0       485.5       486.8       487.4       488.3       488.9       489.0       491.1       493.9    
        496.8       500.6       503.8       506.2       508.8       505.9       505.4       502.8       499.3       496.3    
        492.9       493.9       497.6       498.6       495.2       494.2       496.2       498.3       500.4       502.0    
        506.5       509.3       512.7       517.9       525.0       530.5       535.0       538.5       543.6       546.1    
        549.6       555.0       554.1       540.8       530.2       516.4       506.5       501.5       498.2       495.0    
        491.4       492.1       499.5       508.5       515.6       519.7       524.6       527.8       532.0       535.4    
        538.6       541.9       545.2       548.4       552.1       556.4       561.8       566.5       570.9       577.1    
        585.0       594.4       604.6       616.5       631.7       655.8       683.1       719.6       763.2       791.7    
        791.8       770.3       763.3       759.9       755.6       751.9       748.7       745.0       740.8       736.3    
        731.6       726.7       721.7       717.3       714.2       711.9       709.8       707.7       705.7       703.6    
        699.8       694.4       686.5       679.3       675.1       673.8       675.1       679.0       685.0       694.7    
        709.1       728.7       749.0       758.0       756.6       754.4       750.8       746.6       741.7       737.0    
        732.8       729.0       726.0       723.9       722.9       722.9       717.7       706.1       699.2       694.1    
        689.9       687.0       684.2       682.0       680.6       680.4       680.9       681.2       681.5       681.6    
  98    459.3       460.0       461.1       463.1       465.6       468.6       471.6       474.5       477.3       479.9    
        482.3       484.9       487.2       488.1       489.1       489.8       489.9       493.5       495.2       498.5    
        503.9       505.3       508.0       512.4       514.0       510.3       508.8       507.5       505.9       503.6    
        501.2       504.3       501.4       503.1       499.8       498.9       500.0       502.3       506.6       508.3    
        511.6       513.6       517.1       522.5       530.1       533.8       539.4       543.3       547.6       548.8    
        549.6       550.1       546.1       537.3       527.1       515.7       507.8       503.1       500.3       499.4    
        497.2       502.3       503.4       510.7       516.8       520.4       524.4       528.4       532.0       535.5    
        538.8       542.0       545.2       548.5       552.4       556.7       561.5       566.6       572.4       580.1    
        588.1       598.7       610.0       622.5       638.5       662.9       690.4       729.9       768.2       791.8    
        791.4       777.7       766.8       762.9       758.2       754.1       750.4       746.6       742.6       738.2    
        733.4       728.6       724.2       720.0       716.8       714.7       712.9       711.1       708.6       704.4    
        698.6       692.3       686.2       681.2       678.4       677.9       680.3       684.9       691.1       701.6    
        718.2       744.1       760.0       759.6       758.2       755.8       752.4       748.4       744.0       739.9    
        735.9       732.4       729.7       727.7       726.5       726.2       726.5       715.9       704.9       697.9    
        693.0       689.4       686.4       684.2       682.7       681.7       681.7       682.0       682.5       682.6    
  99    462.5       463.1       464.1       465.9       468.1       470.7       473.3       475.9       478.5       481.2    
        483.9       486.6       488.7       489.9       490.5       490.9       491.9       495.4       497.8       501.4    
        507.1       508.3       509.5       511.6       513.0       512.6       512.8       509.5       508.1       508.6    
        506.1       504.9       503.2       502.9       502.0       501.9       502.8       505.4       509.1       513.5    
        514.5       516.7       520.3       525.8       530.8       534.7       538.9       542.4       546.4       550.6    
        549.2       547.3       542.3       534.6       524.8       515.3       508.8       504.3       501.2       499.1    
        497.3       497.1       502.3       510.8       517.0       520.6       524.5       529.2       532.4       535.8    
        539.2       542.2       545.3       548.7       552.5       556.8       561.5       566.7       572.8       581.2    
        590.5       602.1       613.5       627.9       646.6       669.5       701.1       737.4       769.2       790.3    
        787.6       779.4       771.3       765.4       760.0       755.7       751.9       747.9       743.5       738.9    
        734.6       730.3       725.9       722.0       718.8       716.6       715.1       714.1       710.3       704.3    
        697.0       689.2       684.9       681.7       679.8       679.8       683.7       689.5       698.0       710.6    
        728.1       752.9       761.0       760.6       759.2       756.9       753.6       749.8       745.8       741.8    
        738.1       734.8       732.1       730.2       728.9       728.1       727.7       720.0       708.5       700.1    
        694.8       691.0       687.9       685.6       684.0       683.1       682.6       682.8       683.4       683.4    
 100    464.1       464.6       465.6       467.3       469.4       471.7       474.2       476.6       479.2       482.1    
        485.1       487.7       489.8       490.9       491.3       491.6       492.1       495.5       499.1       502.4    
        507.2       511.6       510.8       511.3       512.5       512.6       512.6       510.3       508.4       508.1    
        507.1       505.4       503.6       503.2       502.8       503.0       504.4       507.0       510.3       515.5    
        516.0       518.4       522.4       528.7       531.6       535.3       538.7       542.1       545.4       548.1    
        548.0       545.9       541.3       533.8       524.2       515.4       508.9       504.5       501.6       498.9    
        496.0       492.6       501.4       510.5       516.9       520.7       524.4       529.1       532.6       536.1    
        540.1       542.5       545.4       548.8       552.5       556.8       561.6       566.9       572.6       579.7    
        591.8       605.5       616.5       630.5       647.5       671.9       705.5       741.4       766.3       783.6    
        785.2       780.0       772.9       766.7       760.9       756.5       752.6       748.6       744.0       739.3    
        735.1       731.2       726.9       723.0       719.8       717.5       716.1       715.4       711.7       704.5    
        694.9       689.0       682.6       681.3       679.6       681.5       685.5       692.2       702.1       716.4    
        739.9       760.8       761.6       761.1       759.7       757.4       754.2       750.6       746.7       742.9    
        739.3       736.0       733.4       731.4       730.0       729.1       728.5       721.3       709.8       701.1    
        695.6       691.7       688.6       686.2       684.6       683.6       683.3       683.4       683.8       683.8    

 HEAD WILL BE SAVED ON UNIT   51 AT END OF TIME STEP    1, STRESS PERIOD    1
1
  VOLUMETRIC BUDGET FOR ENTIRE MODEL AT END OF TIME STEP    1, STRESS PERIOD   1
  ------------------------------------------------------------------------------

     CUMULATIVE VOLUMES      L**3       RATES FOR THIS TIME STEP      L**3/T
     ------------------                 ------------------------

           IN:                                      IN:
           ---                                      ---
             STORAGE =           0.0000               STORAGE =           0.0000
       CONSTANT HEAD =           0.0000         CONSTANT HEAD =           0.0000
              DRAINS =           0.0000                DRAINS =           0.0000
       RIVER LEAKAGE =   151665008.0000         RIVER LEAKAGE =   151665008.0000
            RECHARGE =   214435920.0000              RECHARGE =   214435920.0000

            TOTAL IN =   366100928.0000              TOTAL IN =   366100928.0000

          OUT:                                     OUT:
          ----                                     ----
             STORAGE =           0.0000               STORAGE =           0.0000
       CONSTANT HEAD =           0.0000         CONSTANT HEAD =           0.0000
              DRAINS =    13656036.0000                DRAINS =    13656036.0000
       RIVER LEAKAGE =  2448282880.0000         RIVER LEAKAGE =  2448282880.0000
            RECHARGE =           0.0000              RECHARGE =           0.0000

           TOTAL OUT =  2461938944.0000             TOTAL OUT =  2461938944.0000

            IN - OUT = -2095837952.0000              IN - OUT = -2095837952.0000

 PERCENT DISCREPANCY =        -148.22     PERCENT DISCREPANCY =        -148.22






         TIME SUMMARY AT END OF TIME STEP    1 IN STRESS PERIOD    1
                    SECONDS     MINUTES      HOURS       DAYS        YEARS
                    -----------------------------------------------------------
   TIME STEP LENGTH  86400.      1440.0      24.000      1.0000     2.73785E-03
 STRESS PERIOD TIME  86400.      1440.0      24.000      1.0000     2.73785E-03
         TOTAL TIME  86400.      1440.0      24.000      1.0000     2.73785E-03
1

 Run end date and time (yyyy/mm/dd hh:mm:ss): 2021/04/13 23:16:24
 Elapsed run time:  0.116 Seconds

