                                  MODFLOW-2005     
      U.S. GEOLOGICAL SURVEY MODULAR FINITE-DIFFERENCE GROUND-WATER FLOW MODEL
                            VERSION 1.12.00 2/3/2017

 LIST FILE: my_model.list
                         UNIT    2

 OPENING my_model.dis
 FILE TYPE:DIS   UNIT   11   STATUS:OLD    
 FORMAT:FORMATTED              ACCESS:SEQUENTIAL          

 OPENING my_model.bas
 FILE TYPE:BAS6   UNIT   13   STATUS:OLD    
 FORMAT:FORMATTED              ACCESS:SEQUENTIAL          

 OPENING my_model.riv
 FILE TYPE:RIV   UNIT   18   STATUS:OLD    
 FORMAT:FORMATTED              ACCESS:SEQUENTIAL          

 OPENING my_model.lpf
 FILE TYPE:LPF   UNIT   15   STATUS:OLD    
 FORMAT:FORMATTED              ACCESS:SEQUENTIAL          

 OPENING my_model.rch
 FILE TYPE:RCH   UNIT   19   STATUS:OLD    
 FORMAT:FORMATTED              ACCESS:SEQUENTIAL          

 OPENING my_model.oc
 FILE TYPE:OC   UNIT   14   STATUS:OLD    
 FORMAT:FORMATTED              ACCESS:SEQUENTIAL          

 OPENING my_model.pcg
 FILE TYPE:PCG   UNIT   27   STATUS:OLD    
 FORMAT:FORMATTED              ACCESS:SEQUENTIAL          

 OPENING my_model.cbc
 FILE TYPE:DATA(BINARY)   UNIT    1   STATUS:REPLACE
 FORMAT:BINARY                 ACCESS:SEQUENTIAL          

 OPENING my_model.hds
 FILE TYPE:DATA(BINARY)   UNIT   51   STATUS:REPLACE
 FORMAT:BINARY                 ACCESS:SEQUENTIAL          

 BAS -- BASIC PACKAGE, VERSION 7, 5/2/2005 INPUT READ FROM UNIT   13
 
 MODFLOW was compiled using mixed precision
 Precision of REAL variables:           6
 Precision of DOUBLE PRECISION variables:          15

 DISCRETIZATION INPUT DATA READ FROM UNIT   11
 # DIS package for  MODFLOW-2005, generated by Flopy.
    1 LAYERS       100 ROWS       150 COLUMNS
    1 STRESS PERIOD(S) IN SIMULATION
 MODEL TIME UNIT IS DAYS
 MODEL LENGTH UNIT IS FEET
  Confining bed flag for each layer:
   0

                     DELR =   2925.65    

                     DELC =   2727.60    



           TOP ELEVATION OF LAYER 1
 READING ON UNIT   11 WITH FORMAT: (150E15.6)          



             MODEL LAYER BOTTOM EL. FOR LAYER   1
 READING ON UNIT   11 WITH FORMAT: (150E15.6)          


 STRESS PERIOD     LENGTH       TIME STEPS     MULTIPLIER FOR DELT    SS FLAG
 ----------------------------------------------------------------------------
        1         1.000000          1                    1.000         SS

 STEADY-STATE SIMULATION



 
 # BAS6 package for  MODFLOW-2005, generated by Flopy.                           
 THE FREE FORMAT OPTION HAS BEEN SELECTED



                     BOUNDARY ARRAY FOR LAYER   1
 READING ON UNIT   13 WITH FORMAT: (150I10)            

 AQUIFER HEAD WILL BE SET TO  -999.99     AT ALL NO-FLOW NODES (IBOUND=0).



                       INITIAL HEAD FOR LAYER   1
 READING ON UNIT   13 WITH FORMAT: (150E15.6)          
 # OC package for  MODFLOW-2005, generated by Flopy.

 OUTPUT CONTROL IS SPECIFIED ONLY AT TIME STEPS FOR WHICH OUTPUT IS DESIRED
 COMPACT CELL-BY-CELL BUDGET FILES WILL BE WRITTEN
 AUXILIARY DATA WILL BE SAVED IN CELL-BY-CELL BUDGET FILES
 HEAD PRINT FORMAT CODE IS   0    DRAWDOWN PRINT FORMAT CODE IS   0
 HEADS WILL BE SAVED ON UNIT   51    DRAWDOWNS WILL BE SAVED ON UNIT    0

 LPF -- LAYER-PROPERTY FLOW PACKAGE, VERSION 7, 5/2/2005
         INPUT READ FROM UNIT   15
 # LPF package for  MODFLOW-2005, generated by Flopy.
 CELL-BY-CELL FLOWS WILL BE SAVED ON UNIT    1
 HEAD AT CELLS THAT CONVERT TO DRY= -1.00000E+30
 No named parameters

   LAYER FLAGS:
 LAYER       LAYTYP        LAYAVG         CHANI        LAYVKA        LAYWET
 ---------------------------------------------------------------------------
    1             0             0     1.000E+00             0             0

   INTERPRETATION OF LAYER FLAGS:
                        INTERBLOCK     HORIZONTAL    DATA IN
         LAYER TYPE   TRANSMISSIVITY   ANISOTROPY   ARRAY VKA   WETTABILITY
 LAYER      (LAYTYP)      (LAYAVG)       (CHANI)      (LAYVKA)      (LAYWET)
 ---------------------------------------------------------------------------
    1      CONFINED      HARMONIC     1.000E+00    VERTICAL K  NON-WETTABLE

 WETTING CAPABILITY IS NOT ACTIVE IN ANY LAYER



              HYD. COND. ALONG ROWS FOR LAYER   1
 READING ON UNIT   15 WITH FORMAT: (150E15.6)          



                VERTICAL HYD. COND. FOR LAYER   1
 READING ON UNIT   15 WITH FORMAT: (150E15.6)          

 RIV -- RIVER PACKAGE, VERSION 7, 5/2/2005 INPUT READ FROM UNIT   18
 # RIV package for  MODFLOW-2005, generated by Flopy.
 No named parameters
 MAXIMUM OF   3696 ACTIVE RIVER REACHES AT ONE TIME


     0 River parameters

 RCH -- RECHARGE PACKAGE, VERSION 7, 5/2/2005 INPUT READ FROM UNIT   19
 # RCH package for  MODFLOW-2005, generated by Flopy.
 No named parameters
 OPTION 3 -- RECHARGE TO HIGHEST ACTIVE NODE IN EACH VERTICAL COLUMN


     0 Recharge parameters

 PCG -- CONJUGATE-GRADIENT SOLUTION PACKAGE, VERSION 7, 5/2/2005
 # PCG package for  MODFLOW-2005, generated by Flopy.
 MAXIMUM OF     50 CALLS OF SOLUTION ROUTINE
 MAXIMUM OF     30 INTERNAL ITERATIONS PER CALL TO SOLUTION ROUTINE
 MATRIX PRECONDITIONING TYPE :    1



                                    SOLUTION BY THE CONJUGATE-GRADIENT METHOD
                                   -------------------------------------------
                    MAXIMUM NUMBER OF CALLS TO PCG ROUTINE =       50
                        MAXIMUM ITERATIONS PER CALL TO PCG =       30
                               MATRIX PRECONDITIONING TYPE =        1
        RELAXATION FACTOR (ONLY USED WITH PRECOND. TYPE 1) =    0.10000E+01
 PARAMETER OF POLYNOMIAL PRECOND. = 2 (2) OR IS CALCULATED :        0
                         HEAD CHANGE CRITERION FOR CLOSURE =    0.10000E-04
                     RESIDUAL CHANGE CRITERION FOR CLOSURE =    0.10000E-04
            PCG HEAD AND RESIDUAL CHANGE PRINTOUT INTERVAL =      999
     PRINTING FROM SOLVER IS LIMITED(1) OR SUPPRESSED (>1) =        3
                            STEADY-STATE DAMPING PARAMETER =    0.10000E+01
                               TRANSIENT DAMPING PARAMETER =    0.10000E+01
1
                            STRESS PERIOD NO.    1, LENGTH =   1.000000    
                            -----------------------------------------------

                              NUMBER OF TIME STEPS =     1

                               MULTIPLIER FOR DELT =     1.000

                            INITIAL TIME STEP SIZE =   1.000000    

 REACH NO.  LAYER   ROW   COL     STAGE      CONDUCTANCE     BOTTOM EL.         
 -------------------------------------------------------------------------------
      1      1    100     62       489.2          0.5000E+05       488.7    
      2      1    100     62       512.5          0.5000E+05       512.0    
      3      1    100     62       495.9          0.5000E+05       495.4    
      4      1    100     62       490.4          0.5000E+05       489.9    
      5      1    100     62       489.3          0.5000E+05       488.8    
      6      1     99     62       500.0          0.5000E+05       499.5    
      7      1     99     62       506.7          0.5000E+05       506.2    
      8      1     99     62       489.2          0.5000E+05       488.7    
      9      1     99     62       500.2          0.5000E+05       499.7    
     10      1     99     62       488.8          0.5000E+05       488.3    
     11      1     98     62       501.7          0.5000E+05       501.2    
     12      1     98     62       506.4          0.5000E+05       505.9    
     13      1     98     62       507.5          0.5000E+05       507.0    
     14      1     98     62       542.8          0.5000E+05       542.3    
     15      1     98     62       500.0          0.5000E+05       499.5    
     16      1     98     62       550.4          0.5000E+05       549.9    
     17      1     98     62       489.2          0.5000E+05       488.7    
     18      1     97     62       492.4          0.5000E+05       491.9    
     19      1     97     62       494.8          0.5000E+05       494.3    
     20      1     97     62       490.2          0.5000E+05       489.7    
     21      1     97     62       490.0          0.5000E+05       489.5    
     22      1     97     61       490.0          0.5000E+05       489.5    
     23      1     97     62       490.4          0.5000E+05       489.9    
     24      1     96     61       493.3          0.5000E+05       492.8    
     25      1     96     61       489.3          0.5000E+05       488.8    
     26      1     96     61       489.5          0.5000E+05       489.0    
     27      1     96     61       490.5          0.5000E+05       490.0    
     28      1     96      1       440.0          0.5000E+05       439.5    
     29      1     96      1       440.1          0.5000E+05       439.6    
     30      1     96      1       451.5          0.5000E+05       451.0    
     31      1     96     61       513.8          0.5000E+05       513.3    
     32      1     96     61       491.5          0.5000E+05       491.0    
     33      1     96     61       489.9          0.5000E+05       489.4    
     34      1     95      1       440.0          0.5000E+05       439.5    
     35      1     95      1       440.0          0.5000E+05       439.5    
     36      1     95      1       440.0          0.5000E+05       439.5    
     37      1     95      1       440.0          0.5000E+05       439.5    
     38      1     95      2       439.5          0.5000E+05       439.0    
     39      1     95      2       442.7          0.5000E+05       442.2    
     40      1     95     61       489.2          0.5000E+05       488.7    
     41      1     95     61       489.7          0.5000E+05       489.2    
     42      1     95      2       440.1          0.5000E+05       439.6    
     43      1     95      2       440.0          0.5000E+05       439.5    
     44      1     95      2       439.9          0.5000E+05       439.4    
     45      1     95      3       439.2          0.5000E+05       438.7    
     46      1     95      3       433.0          0.5000E+05       432.5    
     47      1     95     61       489.5          0.5000E+05       489.0    
     48      1     95     61       490.0          0.5000E+05       489.5    
     49      1     95     61       490.2          0.5000E+05       489.7    
     50      1     95     62       492.5          0.5000E+05       492.0    
     51      1     95      3       439.2          0.5000E+05       438.7    
     52      1     95      3       438.9          0.5000E+05       438.4    
     53      1     95     62       489.5          0.5000E+05       489.0    
     54      1     95      3       440.1          0.5000E+05       439.6    
     55      1     95      3       438.9          0.5000E+05       438.4    
     56      1     95      3       436.2          0.5000E+05       435.7    
     57      1     95     62       489.6          0.5000E+05       489.1    
     58      1     95      3       439.7          0.5000E+05       439.2    
     59      1     95      4       436.3          0.5000E+05       435.8    
     60      1     95     62       489.5          0.5000E+05       489.0    
     61      1     94      4       438.9          0.5000E+05       438.4    
     62      1     94      4       438.6          0.5000E+05       438.1    
     63      1     94      4       440.9          0.5000E+05       440.4    
     64      1     94     62       490.1          0.5000E+05       489.6    
     65      1     94      4       452.6          0.5000E+05       452.1    
     66      1     94      4       441.1          0.5000E+05       440.6    
     67      1     94     61       490.2          0.5000E+05       489.7    
     68      1     94     62       489.5          0.5000E+05       489.0    
     69      1     94      4       447.0          0.5000E+05       446.5    
     70      1     94      4       441.8          0.5000E+05       441.3    
     71      1     94     61       489.5          0.5000E+05       489.0    
     72      1     94      4       439.3          0.5000E+05       438.8    
     73      1     94      5       442.6          0.5000E+05       442.1    
     74      1     94      5       443.4          0.5000E+05       442.9    
     75      1     94     61       489.7          0.5000E+05       489.2    
     76      1     93      5       439.9          0.5000E+05       439.4    
     77      1     93      5       441.8          0.5000E+05       441.3    
     78      1     93     61       489.7          0.5000E+05       489.2    
     79      1     93      5       438.8          0.5000E+05       438.3    
     80      1     93      5       439.5          0.5000E+05       439.0    
     81      1     93     61       489.7          0.5000E+05       489.2    
     82      1     93     62       489.7          0.5000E+05       489.2    
     83      1     93      5       453.7          0.5000E+05       453.2    
     84      1     93      6       439.4          0.5000E+05       438.9    
     85      1     93     62       489.7          0.5000E+05       489.2    
     86      1     93     62       489.7          0.5000E+05       489.2    
     87      1     93      5       438.6          0.5000E+05       438.1    
     88      1     93      6       440.0          0.5000E+05       439.5    
     89      1     93     62       489.5          0.5000E+05       489.0    
     90      1     93     62       489.7          0.5000E+05       489.2    
     91      1     92      5       439.4          0.5000E+05       438.9    
     92      1     92     62       494.8          0.5000E+05       494.3    
     93      1     92     62       489.7          0.5000E+05       489.2    
     94      1     92      5       438.4          0.5000E+05       437.9    
     95      1     92     62       489.5          0.5000E+05       489.0    
     96      1     92      5       438.4          0.5000E+05       437.9    
     97      1     92      5       438.6          0.5000E+05       438.1    
     98      1     92     62       489.7          0.5000E+05       489.2    
     99      1     92      5       439.1          0.5000E+05       438.6    
    100      1     92     62       489.5          0.5000E+05       489.0    
    101      1     92     62       489.7          0.5000E+05       489.2    
    102      1     92      5       439.3          0.5000E+05       438.8    
    103      1     92     62       489.7          0.5000E+05       489.2    
    104      1     92     62       489.7          0.5000E+05       489.2    
    105      1     91      5       440.2          0.5000E+05       439.7    
    106      1     91      6       440.3          0.5000E+05       439.8    
    107      1     91     62       489.5          0.5000E+05       489.0    
    108      1     91     62       497.0          0.5000E+05       496.5    
    109      1     91      5       439.4          0.5000E+05       438.9    
    110      1     91      5       440.3          0.5000E+05       439.8    
    111      1     91      6       439.6          0.5000E+05       439.1    
    112      1     91      6       440.4          0.5000E+05       439.9    
    113      1     91      7       440.4          0.5000E+05       439.9    
    114      1     91     62       489.5          0.5000E+05       489.0    
    115      1     91     62       573.5          0.5000E+05       573.0    
    116      1     91      5       439.3          0.5000E+05       438.8    
    117      1     91      6       440.4          0.5000E+05       439.9    
    118      1     91      7       440.4          0.5000E+05       439.9    
    119      1     91      7       440.4          0.5000E+05       439.9    
    120      1     91     62       488.4          0.5000E+05       487.9    
    121      1     91      5       440.3          0.5000E+05       439.8    
    122      1     91      7       440.4          0.5000E+05       439.9    
    123      1     91      7       440.3          0.5000E+05       439.8    
    124      1     91      7       440.4          0.5000E+05       439.9    
    125      1     91      8       440.4          0.5000E+05       439.9    
    126      1     91      8       440.4          0.5000E+05       439.9    
    127      1     91      8       435.4          0.5000E+05       434.9    
    128      1     91     62       489.6          0.5000E+05       489.1    
    129      1     90      5       440.3          0.5000E+05       439.8    
    130      1     90      7       440.3          0.5000E+05       439.8    
    131      1     90      7       440.3          0.5000E+05       439.8    
    132      1     90      7       440.4          0.5000E+05       439.9    
    133      1     90      8       440.3          0.5000E+05       439.8    
    134      1     90      8       440.3          0.5000E+05       439.8    
    135      1     90      8       440.2          0.5000E+05       439.7    
    136      1     90      8       435.3          0.5000E+05       434.8    
    137      1     90      9       435.3          0.5000E+05       434.8    
    138      1     90     62       490.4          0.5000E+05       489.9    
    139      1     90      5       440.0          0.5000E+05       439.5    
    140      1     90      8       440.2          0.5000E+05       439.7    
    141      1     90      9       447.1          0.5000E+05       446.6    
    142      1     90     62       481.2          0.5000E+05       480.7    
    143      1     90     62       492.9          0.5000E+05       492.4    
    144      1     90    113       606.8          0.5000E+05       606.3    
    145      1     90    113       605.8          0.5000E+05       605.3    
    146      1     90    113       609.8          0.5000E+05       609.3    
    147      1     90    113       615.5          0.5000E+05       615.0    
    148      1     90    114       596.7          0.5000E+05       596.2    
    149      1     90    118       601.3          0.5000E+05       600.8    
    150      1     90    118       583.2          0.5000E+05       582.7    
    151      1     90    118       584.0          0.5000E+05       583.5    
    152      1     90    119       609.7          0.5000E+05       609.2    
    153      1     90      5       439.8          0.5000E+05       439.3    
    154      1     90      9       440.4          0.5000E+05       439.9    
    155      1     90      9       435.8          0.5000E+05       435.3    
    156      1     90     62       479.9          0.5000E+05       479.4    
    157      1     90    108       567.7          0.5000E+05       567.2    
    158      1     90    108       568.4          0.5000E+05       567.9    
    159      1     90    119       604.5          0.5000E+05       604.0    
    160      1     90    120       609.4          0.5000E+05       608.9    
    161      1     90    120       610.0          0.5000E+05       609.5    
    162      1     90    120       615.3          0.5000E+05       614.8    
    163      1     90    112       579.3          0.5000E+05       578.8    
    164      1     90    113       575.5          0.5000E+05       575.0    
    165      1     90    113       570.6          0.5000E+05       570.1    
    166      1     90    113       576.1          0.5000E+05       575.6    
    167      1     90    113       578.9          0.5000E+05       578.4    
    168      1     90    114       572.3          0.5000E+05       571.8    
    169      1     90    114       581.3          0.5000E+05       580.8    
    170      1     90    114       584.1          0.5000E+05       583.6    
    171      1     90    118       625.1          0.5000E+05       624.6    
    172      1     90    118       589.8          0.5000E+05       589.3    
    173      1     90    119       593.9          0.5000E+05       593.4    
    174      1     90      5       439.6          0.5000E+05       439.1    
    175      1     90      9       440.2          0.5000E+05       439.7    
    176      1     90     62       490.5          0.5000E+05       490.0    
    177      1     90    112       575.5          0.5000E+05       575.0    
    178      1     90    112       574.7          0.5000E+05       574.2    
    179      1     90    112       578.3          0.5000E+05       577.8    
    180      1     90    112       575.8          0.5000E+05       575.3    
    181      1     90    108       564.9          0.5000E+05       564.4    
    182      1     90    108       564.9          0.5000E+05       564.4    
    183      1     90    108       565.4          0.5000E+05       564.9    
    184      1     90    119       586.1          0.5000E+05       585.6    
    185      1     90    119       605.1          0.5000E+05       604.6    
    186      1     90    119       590.9          0.5000E+05       590.4    
    187      1     90    120       590.2          0.5000E+05       589.7    
    188      1     90    120       622.5          0.5000E+05       622.0    
    189      1     90    113       576.3          0.5000E+05       575.8    
    190      1     90    114       581.4          0.5000E+05       580.9    
    191      1     90    114       580.7          0.5000E+05       580.2    
    192      1     90    118       582.1          0.5000E+05       581.6    
    193      1     90    119       589.5          0.5000E+05       589.0    
    194      1     90    119       587.2          0.5000E+05       586.7    
    195      1     90      5       439.9          0.5000E+05       439.4    
    196      1     90      9       440.3          0.5000E+05       439.8    
    197      1     90      9       435.8          0.5000E+05       435.3    
    198      1     90     62       489.7          0.5000E+05       489.2    
    199      1     90    109       570.0          0.5000E+05       569.5    
    200      1     90    110       570.1          0.5000E+05       569.6    
    201      1     90    111       574.6          0.5000E+05       574.1    
    202      1     90    111       576.5          0.5000E+05       576.0    
    203      1     90    111       585.1          0.5000E+05       584.6    
    204      1     90    111       584.3          0.5000E+05       583.8    
    205      1     90    109       569.8          0.5000E+05       569.3    
    206      1     90    109       570.0          0.5000E+05       569.5    
    207      1     90    115       588.6          0.5000E+05       588.1    
    208      1     90    112       571.2          0.5000E+05       570.7    
    209      1     90    112       570.1          0.5000E+05       569.6    
    210      1     90    108       579.9          0.5000E+05       579.4    
    211      1     90    108       565.0          0.5000E+05       564.5    
    212      1     90    108       564.9          0.5000E+05       564.4    
    213      1     90    109       565.7          0.5000E+05       565.2    
    214      1     90    120       615.0          0.5000E+05       614.5    
    215      1     90    114       578.3          0.5000E+05       577.8    
    216      1     90    114       590.4          0.5000E+05       589.9    
    217      1     90    115       589.6          0.5000E+05       589.1    
    218      1     90    115       590.2          0.5000E+05       589.7    
    219      1     90    118       585.5          0.5000E+05       585.0    
    220      1     89      5       440.1          0.5000E+05       439.6    
    221      1     89      9       440.7          0.5000E+05       440.2    
    222      1     89      9       435.3          0.5000E+05       434.8    
    223      1     89     62       485.4          0.5000E+05       484.9    
    224      1     89    109       569.7          0.5000E+05       569.2    
    225      1     89    109       570.0          0.5000E+05       569.5    
    226      1     89    110       569.9          0.5000E+05       569.4    
    227      1     89    110       569.7          0.5000E+05       569.2    
    228      1     89    110       569.7          0.5000E+05       569.2    
    229      1     89    110       570.9          0.5000E+05       570.4    
    230      1     89    110       570.8          0.5000E+05       570.3    
    231      1     89    111       569.7          0.5000E+05       569.2    
    232      1     89    111       569.8          0.5000E+05       569.3    
    233      1     89    109       599.8          0.5000E+05       599.3    
    234      1     89    115       580.7          0.5000E+05       580.2    
    235      1     89    115       581.1          0.5000E+05       580.6    
    236      1     89    111       569.7          0.5000E+05       569.2    
    237      1     89    112       569.8          0.5000E+05       569.3    
    238      1     89    107       568.9          0.5000E+05       568.4    
    239      1     89    108       567.2          0.5000E+05       566.7    
    240      1     89    109       593.4          0.5000E+05       592.9    
    241      1     89    109       605.7          0.5000E+05       605.2    
    242      1     89    120       590.6          0.5000E+05       590.1    
    243      1     89    115       578.3          0.5000E+05       577.8    
    244      1     89    115       580.2          0.5000E+05       579.7    
    245      1     89    117       580.5          0.5000E+05       580.0    
    246      1     89    118       581.7          0.5000E+05       581.2    
    247      1     89      5       440.1          0.5000E+05       439.6    
    248      1     89      9       436.9          0.5000E+05       436.4    
    249      1     89     62       482.4          0.5000E+05       481.9    
    250      1     89    121       593.6          0.5000E+05       593.1    
    251      1     89    121       593.9          0.5000E+05       593.4    
    252      1     89    121       594.7          0.5000E+05       594.2    
    253      1     89    116       583.7          0.5000E+05       583.2    
    254      1     89    110       569.7          0.5000E+05       569.2    
    255      1     89    110       569.8          0.5000E+05       569.3    
    256      1     89    115       579.5          0.5000E+05       579.0    
    257      1     89    116       580.8          0.5000E+05       580.3    
    258      1     89    107       564.3          0.5000E+05       563.8    
    259      1     89    108       565.9          0.5000E+05       565.4    
    260      1     89    120       590.1          0.5000E+05       589.6    
    261      1     89    117       580.1          0.5000E+05       579.6    
    262      1     89      5       440.1          0.5000E+05       439.6    
    263      1     89      5       440.4          0.5000E+05       439.9    
    264      1     89      9       445.9          0.5000E+05       445.4    
    265      1     89      9       435.3          0.5000E+05       434.8    
    266      1     89     62       479.6          0.5000E+05       479.1    
    267      1     89     62       485.9          0.5000E+05       485.4    
    268      1     89    117       584.8          0.5000E+05       584.3    
    269      1     89    117       583.0          0.5000E+05       582.5    
    270      1     89    117       580.3          0.5000E+05       579.8    
    271      1     89    122       594.6          0.5000E+05       594.1    
    272      1     89    122       597.3          0.5000E+05       596.8    
    273      1     89    121       591.6          0.5000E+05       591.1    
    274      1     89    121       594.0          0.5000E+05       593.5    
    275      1     89    121       594.7          0.5000E+05       594.2    
    276      1     89    121       594.8          0.5000E+05       594.3    
    277      1     89    116       584.8          0.5000E+05       584.3    
    278      1     89    108       562.4          0.5000E+05       561.9    
    279      1     89    120       589.6          0.5000E+05       589.1    
    280      1     89    120       592.3          0.5000E+05       591.8    
    281      1     89    117       581.1          0.5000E+05       580.6    
    282      1     89      5       440.4          0.5000E+05       439.9    
    283      1     89      9       440.2          0.5000E+05       439.7    
    284      1     89      9       434.8          0.5000E+05       434.3    
    285      1     89     62       489.9          0.5000E+05       489.4    
    286      1     89     62       480.2          0.5000E+05       479.7    
    287      1     89    117       580.0          0.5000E+05       579.5    
    288      1     89    117       587.7          0.5000E+05       587.2    
    289      1     89    122       596.4          0.5000E+05       595.9    
    290      1     89    122       589.7          0.5000E+05       589.2    
    291      1     89    116       585.4          0.5000E+05       584.9    
    292      1     89    107       561.0          0.5000E+05       560.5    
    293      1     89    108       564.7          0.5000E+05       564.2    
    294      1     89    122       596.4          0.5000E+05       595.9    
    295      1     88      5       440.3          0.5000E+05       439.8    
    296      1     88      6       440.4          0.5000E+05       439.9    
    297      1     88     25       445.0          0.5000E+05       444.5    
    298      1     88     26       446.6          0.5000E+05       446.1    
    299      1     88     26       448.0          0.5000E+05       447.5    
    300      1     88     26       448.8          0.5000E+05       448.3    
    301      1     88     26       449.5          0.5000E+05       449.0    
    302      1     88     26       449.7          0.5000E+05       449.2    
    303      1     88     27       449.7          0.5000E+05       449.2    
    304      1     88     27       449.7          0.5000E+05       449.2    
    305      1     88     27       449.7          0.5000E+05       449.2    
    306      1     88     27       449.7          0.5000E+05       449.2    
    307      1     88     28       449.7          0.5000E+05       449.2    
    308      1     88     28       449.7          0.5000E+05       449.2    
    309      1     88     28       449.7          0.5000E+05       449.2    
    310      1     88     28       449.7          0.5000E+05       449.2    
    311      1     88     28       449.7          0.5000E+05       449.2    
    312      1     88     29       449.7          0.5000E+05       449.2    
    313      1     88     29       449.7          0.5000E+05       449.2    
    314      1     88     29       449.7          0.5000E+05       449.2    
    315      1     88     29       449.7          0.5000E+05       449.2    
    316      1     88     29       449.7          0.5000E+05       449.2    
    317      1     88     30       449.7          0.5000E+05       449.2    
    318      1     88     30       449.7          0.5000E+05       449.2    
    319      1     88     30       449.7          0.5000E+05       449.2    
    320      1     88     30       444.3          0.5000E+05       443.8    
    321      1     88     31       444.7          0.5000E+05       444.2    
    322      1     88     31       449.7          0.5000E+05       449.2    
    323      1     88     31       449.7          0.5000E+05       449.2    
    324      1     88      9       440.0          0.5000E+05       439.5    
    325      1     88      9       438.2          0.5000E+05       437.7    
    326      1     88     22       441.2          0.5000E+05       440.7    
    327      1     88     22       441.0          0.5000E+05       440.5    
    328      1     88     22       443.7          0.5000E+05       443.2    
    329      1     88     23       443.7          0.5000E+05       443.2    
    330      1     88     23       443.7          0.5000E+05       443.2    
    331      1     88     23       443.7          0.5000E+05       443.2    
    332      1     88     23       443.7          0.5000E+05       443.2    
    333      1     88     23       443.7          0.5000E+05       443.2    
    334      1     88     24       443.7          0.5000E+05       443.2    
    335      1     88     24       443.7          0.5000E+05       443.2    
    336      1     88     24       443.7          0.5000E+05       443.2    
    337      1     88     24       443.7          0.5000E+05       443.2    
    338      1     88     25       443.7          0.5000E+05       443.2    
    339      1     88     25       443.7          0.5000E+05       443.2    
    340      1     88     25       443.7          0.5000E+05       443.2    
    341      1     88     25       443.7          0.5000E+05       443.2    
    342      1     88     31       449.7          0.5000E+05       449.2    
    343      1     88     62       480.9          0.5000E+05       480.4    
    344      1     88     62       489.9          0.5000E+05       489.4    
    345      1     88    116       589.4          0.5000E+05       588.9    
    346      1     88    116       578.8          0.5000E+05       578.3    
    347      1     88    107       562.4          0.5000E+05       561.9    
    348      1     88    107       559.6          0.5000E+05       559.1    
    349      1     88    107       563.8          0.5000E+05       563.3    
    350      1     88    122       589.7          0.5000E+05       589.2    
    351      1     88    122       591.8          0.5000E+05       591.3    
    352      1     88    122       588.5          0.5000E+05       588.0    
    353      1     88    123       599.3          0.5000E+05       598.8    
    354      1     88    117       583.4          0.5000E+05       582.9    
    355      1     88    116       574.2          0.5000E+05       573.7    
    356      1     88    116       585.0          0.5000E+05       584.5    
    357      1     88    107       562.6          0.5000E+05       562.1    
    358      1     88    107       563.5          0.5000E+05       563.0    
    359      1     88      6       440.4          0.5000E+05       439.9    
    360      1     88      6       440.4          0.5000E+05       439.9    
    361      1     88     19       449.0          0.5000E+05       448.5    
    362      1     88     19       448.8          0.5000E+05       448.3    
    363      1     88     19       448.9          0.5000E+05       448.4    
    364      1     88     19       448.7          0.5000E+05       448.2    
    365      1     88     20       449.4          0.5000E+05       448.9    
    366      1     88     20       447.8          0.5000E+05       447.3    
    367      1     88     20       448.2          0.5000E+05       447.7    
    368      1     88     20       446.7          0.5000E+05       446.2    
    369      1     88     20       446.7          0.5000E+05       446.2    
    370      1     88     21       448.3          0.5000E+05       447.8    
    371      1     88     21       442.6          0.5000E+05       442.1    
    372      1     88     21       440.2          0.5000E+05       439.7    
    373      1     88     21       440.2          0.5000E+05       439.7    
    374      1     88     22       440.2          0.5000E+05       439.7    
    375      1     88     22       440.0          0.5000E+05       439.5    
    376      1     88     22       438.4          0.5000E+05       437.9    
    377      1     88     22       438.9          0.5000E+05       438.4    
    378      1     88     22       443.7          0.5000E+05       443.2    
    379      1     88     23       443.7          0.5000E+05       443.2    
    380      1     88     23       443.5          0.5000E+05       443.0    
    381      1     88     23       443.4          0.5000E+05       442.9    
    382      1     88     23       442.7          0.5000E+05       442.2    
    383      1     88     23       442.7          0.5000E+05       442.2    
    384      1     88     24       442.7          0.5000E+05       442.2    
    385      1     88     24       442.7          0.5000E+05       442.2    
    386      1     88     24       442.7          0.5000E+05       442.2    
    387      1     88     24       442.7          0.5000E+05       442.2    
    388      1     88     25       442.7          0.5000E+05       442.2    
    389      1     88     25       442.7          0.5000E+05       442.2    
    390      1     88     25       442.7          0.5000E+05       442.2    
    391      1     88     25       442.7          0.5000E+05       442.2    
    392      1     88     25       442.7          0.5000E+05       442.2    
    393      1     88     31       442.5          0.5000E+05       442.0    
    394      1     88     31       449.7          0.5000E+05       449.2    
    395      1     88     31       449.7          0.5000E+05       449.2    
    396      1     88      9       440.2          0.5000E+05       439.7    
    397      1     88      9       430.6          0.5000E+05       430.1    
    398      1     88     17       438.3          0.5000E+05       437.8    
    399      1     88     17       440.2          0.5000E+05       439.7    
    400      1     88     18       440.8          0.5000E+05       440.3    
    401      1     88     18       442.3          0.5000E+05       441.8    
    402      1     88     18       437.4          0.5000E+05       436.9    
    403      1     88     18       441.6          0.5000E+05       441.1    
    404      1     88     18       443.3          0.5000E+05       442.8    
    405      1     88     19       443.5          0.5000E+05       443.0    
    406      1     88     32       449.7          0.5000E+05       449.2    
    407      1     88     32       449.8          0.5000E+05       449.3    
    408      1     88     62       479.6          0.5000E+05       479.1    
    409      1     88    106       564.8          0.5000E+05       564.3    
    410      1     88    107       559.6          0.5000E+05       559.1    
    411      1     88    123       600.2          0.5000E+05       599.7    
    412      1     88    123       600.4          0.5000E+05       599.9    
    413      1     88    107       564.8          0.5000E+05       564.3    
    414      1     88    107       564.6          0.5000E+05       564.1    
    415      1     88      6       440.5          0.5000E+05       440.0    
    416      1     88     17       438.1          0.5000E+05       437.6    
    417      1     88     17       443.4          0.5000E+05       442.9    
    418      1     88     17       447.4          0.5000E+05       446.9    
    419      1     88     17       450.0          0.5000E+05       449.5    
    420      1     88     18       448.8          0.5000E+05       448.3    
    421      1     88     18       449.2          0.5000E+05       448.7    
    422      1     88     18       449.7          0.5000E+05       449.2    
    423      1     88     18       451.6          0.5000E+05       451.1    
    424      1     88     18       451.7          0.5000E+05       451.2    
    425      1     88     19       447.7          0.5000E+05       447.2    
    426      1     88     19       447.9          0.5000E+05       447.4    
    427      1     88     31       442.7          0.5000E+05       442.2    
    428      1     88     32       449.7          0.5000E+05       449.2    
    429      1     88     32       449.7          0.5000E+05       449.2    
    430      1     88      9       454.0          0.5000E+05       453.5    
    431      1     88     10       437.5          0.5000E+05       437.0    
    432      1     88     16       437.5          0.5000E+05       437.0    
    433      1     88     32       449.7          0.5000E+05       449.2    
    434      1     88     62       482.1          0.5000E+05       481.6    
    435      1     88    106       559.6          0.5000E+05       559.1    
    436      1     88    123       600.2          0.5000E+05       599.7    
    437      1     88    123       599.9          0.5000E+05       599.4    
    438      1     88      6       440.5          0.5000E+05       440.0    
    439      1     88      6       440.5          0.5000E+05       440.0    
    440      1     88      6       440.5          0.5000E+05       440.0    
    441      1     88     16       452.9          0.5000E+05       452.4    
    442      1     88     16       444.6          0.5000E+05       444.1    
    443      1     88     16       444.7          0.5000E+05       444.2    
    444      1     88     17       445.8          0.5000E+05       445.3    
    445      1     88     32       442.7          0.5000E+05       442.2    
    446      1     88     32       449.5          0.5000E+05       449.0    
    447      1     88     32       449.7          0.5000E+05       449.2    
    448      1     88      9       441.1          0.5000E+05       440.6    
    449      1     88     10       431.2          0.5000E+05       430.7    
    450      1     88     10       438.2          0.5000E+05       437.7    
    451      1     88     16       437.8          0.5000E+05       437.3    
    452      1     88     32       449.7          0.5000E+05       449.2    
    453      1     88     62       479.6          0.5000E+05       479.1    
    454      1     88     62       485.3          0.5000E+05       484.8    
    455      1     88     63       486.3          0.5000E+05       485.8    
    456      1     88    106       569.5          0.5000E+05       569.0    
    457      1     88    106       559.7          0.5000E+05       559.2    
    458      1     88    106       559.6          0.5000E+05       559.1    
    459      1     88    123       599.5          0.5000E+05       599.0    
    460      1     87      6       440.5          0.5000E+05       440.0    
    461      1     87      6       440.5          0.5000E+05       440.0    
    462      1     87     15       437.0          0.5000E+05       436.5    
    463      1     87     16       445.8          0.5000E+05       445.3    
    464      1     87     16       444.0          0.5000E+05       443.5    
    465      1     87     16       447.3          0.5000E+05       446.8    
    466      1     87     32       443.0          0.5000E+05       442.5    
    467      1     87     32       443.6          0.5000E+05       443.1    
    468      1     87     33       449.7          0.5000E+05       449.2    
    469      1     87     10       440.4          0.5000E+05       439.9    
    470      1     87     10       438.9          0.5000E+05       438.4    
    471      1     87     10       438.5          0.5000E+05       438.0    
    472      1     87     15       434.7          0.5000E+05       434.2    
    473      1     87     33       449.7          0.5000E+05       449.2    
    474      1     87     63       481.9          0.5000E+05       481.4    
    475      1     87    106       569.7          0.5000E+05       569.2    
    476      1     87    106       564.7          0.5000E+05       564.2    
    477      1     87    123       600.3          0.5000E+05       599.8    
    478      1     87    123       605.2          0.5000E+05       604.7    
    479      1     87      6       440.5          0.5000E+05       440.0    
    480      1     87      7       440.4          0.5000E+05       439.9    
    481      1     87      7       440.5          0.5000E+05       440.0    
    482      1     87     15       439.5          0.5000E+05       439.0    
    483      1     87     15       441.7          0.5000E+05       441.2    
    484      1     87     15       441.9          0.5000E+05       441.4    
    485      1     87     15       441.1          0.5000E+05       440.6    
    486      1     87     33       449.7          0.5000E+05       449.2    
    487      1     87     33       449.7          0.5000E+05       449.2    
    488      1     87     33       449.7          0.5000E+05       449.2    
    489      1     87     10       440.4          0.5000E+05       439.9    
    490      1     87     10       433.0          0.5000E+05       432.5    
    491      1     87     10       440.5          0.5000E+05       440.0    
    492      1     87     15       436.5          0.5000E+05       436.0    
    493      1     87     33       449.7          0.5000E+05       449.2    
    494      1     87     63       479.7          0.5000E+05       479.2    
    495      1     87    106       564.9          0.5000E+05       564.4    
    496      1     87    106       559.9          0.5000E+05       559.4    
    497      1     87    123       604.1          0.5000E+05       603.6    
    498      1     87      7       440.5          0.5000E+05       440.0    
    499      1     87      7       440.5          0.5000E+05       440.0    
    500      1     87     14       445.7          0.5000E+05       445.2    
    501      1     87     14       441.7          0.5000E+05       441.2    
    502      1     87     15       442.0          0.5000E+05       441.5    
    503      1     87     15       444.0          0.5000E+05       443.5    
    504      1     87     33       449.8          0.5000E+05       449.3    
    505      1     87     33       442.7          0.5000E+05       442.2    
    506      1     87     34       449.7          0.5000E+05       449.2    
    507      1     87     10       440.4          0.5000E+05       439.9    
    508      1     87     10       436.4          0.5000E+05       435.9    
    509      1     87     14       436.4          0.5000E+05       435.9    
    510      1     87     34       449.7          0.5000E+05       449.2    
    511      1     87     63       479.6          0.5000E+05       479.1    
    512      1     87     63       479.7          0.5000E+05       479.2    
    513      1     87    105       554.8          0.5000E+05       554.3    
    514      1     87    105       558.4          0.5000E+05       557.9    
    515      1     87    106       559.9          0.5000E+05       559.4    
    516      1     87    123       594.9          0.5000E+05       594.4    
    517      1     87    123       604.8          0.5000E+05       604.3    
    518      1     87      7       440.5          0.5000E+05       440.0    
    519      1     87      7       440.5          0.5000E+05       440.0    
    520      1     87      7       440.3          0.5000E+05       439.8    
    521      1     87     10       439.4          0.5000E+05       438.9    
    522      1     87     11       438.1          0.5000E+05       437.6    
    523      1     87     13       442.1          0.5000E+05       441.6    
    524      1     87     14       440.5          0.5000E+05       440.0    
    525      1     87     14       440.7          0.5000E+05       440.2    
    526      1     87     14       441.7          0.5000E+05       441.2    
    527      1     87     34       442.7          0.5000E+05       442.2    
    528      1     87     34       443.8          0.5000E+05       443.3    
    529      1     87     34       449.7          0.5000E+05       449.2    
    530      1     87     13       434.1          0.5000E+05       433.6    
    531      1     87     34       451.0          0.5000E+05       450.5    
    532      1     87     63       479.6          0.5000E+05       479.1    
    533      1     87    105       569.0          0.5000E+05       568.5    
    534      1     87    105       557.6          0.5000E+05       557.1    
    535      1     87    105       555.7          0.5000E+05       555.2    
    536      1     87    123       591.6          0.5000E+05       591.1    
    537      1     87    124       604.6          0.5000E+05       604.1    
    538      1     87      7       440.5          0.5000E+05       440.0    
    539      1     87      8       440.5          0.5000E+05       440.0    
    540      1     87      8       440.4          0.5000E+05       439.9    
    541      1     87     11       449.8          0.5000E+05       449.3    
    542      1     87     11       439.7          0.5000E+05       439.2    
    543      1     87     13       437.3          0.5000E+05       436.8    
    544      1     87     13       445.3          0.5000E+05       444.8    
    545      1     87     13       440.7          0.5000E+05       440.2    
    546      1     87     13       441.3          0.5000E+05       440.8    
    547      1     87     34       442.7          0.5000E+05       442.2    
    548      1     87     34       452.4          0.5000E+05       451.9    
    549      1     87     13       437.2          0.5000E+05       436.7    
    550      1     87     34       454.1          0.5000E+05       453.6    
    551      1     87     35       453.5          0.5000E+05       453.0    
    552      1     87     63       484.9          0.5000E+05       484.4    
    553      1     87    105       553.9          0.5000E+05       553.4    
    554      1     87    124       596.3          0.5000E+05       595.8    
    555      1     86      8       440.5          0.5000E+05       440.0    
    556      1     86      8       440.6          0.5000E+05       440.1    
    557      1     86      8       440.6          0.5000E+05       440.1    
    558      1     86      9       440.6          0.5000E+05       440.1    
    559      1     86     11       454.2          0.5000E+05       453.7    
    560      1     86     11       438.4          0.5000E+05       437.9    
    561      1     86     12       437.2          0.5000E+05       436.7    
    562      1     86     12       438.3          0.5000E+05       437.8    
    563      1     86     13       443.1          0.5000E+05       442.6    
    564      1     86     13       440.7          0.5000E+05       440.2    
    565      1     86     34       444.9          0.5000E+05       444.4    
    566      1     86     34       450.8          0.5000E+05       450.3    
    567      1     86     35       453.7          0.5000E+05       453.2    
    568      1     86     11       438.0          0.5000E+05       437.5    
    569      1     86     12       435.7          0.5000E+05       435.2    
    570      1     86     12       437.0          0.5000E+05       436.5    
    571      1     86     35       451.9          0.5000E+05       451.4    
    572      1     86     63       492.8          0.5000E+05       492.3    
    573      1     86    104       561.6          0.5000E+05       561.1    
    574      1     86    105       556.2          0.5000E+05       555.7    
    575      1     86    124       595.5          0.5000E+05       595.0    
    576      1     86    124       604.9          0.5000E+05       604.4    
    577      1     86      9       440.7          0.5000E+05       440.2    
    578      1     86      9       440.6          0.5000E+05       440.1    
    579      1     86     11       441.2          0.5000E+05       440.7    
    580      1     86     11       440.3          0.5000E+05       439.8    
    581      1     86     12       440.4          0.5000E+05       439.9    
    582      1     86     12       440.4          0.5000E+05       439.9    
    583      1     86     12       441.4          0.5000E+05       440.9    
    584      1     86     12       444.2          0.5000E+05       443.7    
    585      1     86     35       451.7          0.5000E+05       451.2    
    586      1     86     35       447.2          0.5000E+05       446.7    
    587      1     86     35       450.6          0.5000E+05       450.1    
    588      1     86     35       450.7          0.5000E+05       450.2    
    589      1     86     35       450.8          0.5000E+05       450.3    
    590      1     86     36       451.8          0.5000E+05       451.3    
    591      1     86     63       479.5          0.5000E+05       479.0    
    592      1     86    104       555.3          0.5000E+05       554.8    
    593      1     86    124       597.8          0.5000E+05       597.3    
    594      1     86    124       604.7          0.5000E+05       604.2    
    595      1     86      9       440.6          0.5000E+05       440.1    
    596      1     86      9       440.6          0.5000E+05       440.1    
    597      1     86     35       447.2          0.5000E+05       446.7    
    598      1     86     35       447.2          0.5000E+05       446.7    
    599      1     86     35       447.2          0.5000E+05       446.7    
    600      1     86     36       450.2          0.5000E+05       449.7    
    601      1     86     36       450.5          0.5000E+05       450.0    
    602      1     86     36       450.7          0.5000E+05       450.2    
    603      1     86     36       450.9          0.5000E+05       450.4    
    604      1     86     37       451.5          0.5000E+05       451.0    
    605      1     86     37       451.7          0.5000E+05       451.2    
    606      1     86     37       454.2          0.5000E+05       453.7    
    607      1     86     37       454.7          0.5000E+05       454.2    
    608      1     86     37       454.7          0.5000E+05       454.2    
    609      1     86     38       454.7          0.5000E+05       454.2    
    610      1     86     63       479.2          0.5000E+05       478.7    
    611      1     86    104       555.1          0.5000E+05       554.6    
    612      1     86    104       554.7          0.5000E+05       554.2    
    613      1     86    124       603.0          0.5000E+05       602.5    
    614      1     86      9       440.6          0.5000E+05       440.1    
    615      1     86     36       447.2          0.5000E+05       446.7    
    616      1     86     36       449.7          0.5000E+05       449.2    
    617      1     86     37       449.7          0.5000E+05       449.2    
    618      1     86     37       449.7          0.5000E+05       449.2    
    619      1     86     37       449.7          0.5000E+05       449.2    
    620      1     86     37       449.7          0.5000E+05       449.2    
    621      1     86     37       449.7          0.5000E+05       449.2    
    622      1     86     38       454.6          0.5000E+05       454.1    
    623      1     86     38       454.9          0.5000E+05       454.4    
    624      1     86     38       455.1          0.5000E+05       454.6    
    625      1     86     63       482.0          0.5000E+05       481.5    
    626      1     86    104       557.8          0.5000E+05       557.3    
    627      1     86    104       555.6          0.5000E+05       555.1    
    628      1     86    104       551.0          0.5000E+05       550.5    
    629      1     86    104       555.3          0.5000E+05       554.8    
    630      1     86    124       599.2          0.5000E+05       598.7    
    631      1     85      9       440.6          0.5000E+05       440.1    
    632      1     85     38       449.7          0.5000E+05       449.2    
    633      1     85     38       452.7          0.5000E+05       452.2    
    634      1     85     38       456.2          0.5000E+05       455.7    
    635      1     85     38       459.0          0.5000E+05       458.5    
    636      1     85     63       479.4          0.5000E+05       478.9    
    637      1     85     63       541.2          0.5000E+05       540.7    
    638      1     85    104       552.1          0.5000E+05       551.6    
    639      1     85    104       554.7          0.5000E+05       554.2    
    640      1     85    104       556.8          0.5000E+05       556.3    
    641      1     85    124       599.3          0.5000E+05       598.8    
    642      1     85    124       598.5          0.5000E+05       598.0    
    643      1     85      9       440.6          0.5000E+05       440.1    
    644      1     85     38       449.7          0.5000E+05       449.2    
    645      1     85     38       452.3          0.5000E+05       451.8    
    646      1     85     62       480.4          0.5000E+05       479.9    
    647      1     85     62       477.3          0.5000E+05       476.8    
    648      1     85     63       489.8          0.5000E+05       489.3    
    649      1     85     63       479.3          0.5000E+05       478.8    
    650      1     85     39       455.5          0.5000E+05       455.0    
    651      1     85    104       555.4          0.5000E+05       554.9    
    652      1     85    124       600.1          0.5000E+05       599.6    
    653      1     85    124       600.1          0.5000E+05       599.6    
    654      1     85      9       441.1          0.5000E+05       440.6    
    655      1     85     38       449.7          0.5000E+05       449.2    
    656      1     85     39       453.1          0.5000E+05       452.6    
    657      1     85     62       479.3          0.5000E+05       478.8    
    658      1     85     63       480.3          0.5000E+05       479.8    
    659      1     85     63       481.7          0.5000E+05       481.2    
    660      1     85     63       478.6          0.5000E+05       478.1    
    661      1     85     39       453.8          0.5000E+05       453.3    
    662      1     85     92       529.7          0.5000E+05       529.2    
    663      1     85     92       529.1          0.5000E+05       528.6    
    664      1     85     92       529.2          0.5000E+05       528.7    
    665      1     85     92       520.4          0.5000E+05       519.9    
    666      1     85    104       555.6          0.5000E+05       555.1    
    667      1     85    104       554.7          0.5000E+05       554.2    
    668      1     85     93       525.7          0.5000E+05       525.2    
    669      1     85     93       526.0          0.5000E+05       525.5    
    670      1     85     93       526.0          0.5000E+05       525.5    
    671      1     85     93       528.8          0.5000E+05       528.3    
    672      1     85     94       530.3          0.5000E+05       529.8    
    673      1     85    124       600.1          0.5000E+05       599.6    
    674      1     85      9       440.9          0.5000E+05       440.4    
    675      1     85     39       456.4          0.5000E+05       455.9    
    676      1     85     39       464.5          0.5000E+05       464.0    
    677      1     85     39       461.8          0.5000E+05       461.3    
    678      1     85     62       477.5          0.5000E+05       477.0    
    679      1     85     39       459.7          0.5000E+05       459.2    
    680      1     85     91       527.2          0.5000E+05       526.7    
    681      1     85     92       528.3          0.5000E+05       527.8    
    682      1     85     92       524.4          0.5000E+05       523.9    
    683      1     85    104       549.6          0.5000E+05       549.1    
    684      1     85     94       555.5          0.5000E+05       555.0    
    685      1     85     94       529.5          0.5000E+05       529.0    
    686      1     85     94       529.4          0.5000E+05       528.9    
    687      1     85     94       530.4          0.5000E+05       529.9    
    688      1     85    124       600.1          0.5000E+05       599.6    
    689      1     85    124       600.4          0.5000E+05       599.9    
    690      1     84      9       440.9          0.5000E+05       440.4    
    691      1     84     39       449.7          0.5000E+05       449.2    
    692      1     84     39       452.2          0.5000E+05       451.7    
    693      1     84     62       478.1          0.5000E+05       477.6    
    694      1     84     62       481.1          0.5000E+05       480.6    
    695      1     84     40       459.7          0.5000E+05       459.2    
    696      1     84     91       524.0          0.5000E+05       523.5    
    697      1     84     91       521.8          0.5000E+05       521.3    
    698      1     84     91       529.2          0.5000E+05       528.7    
    699      1     84    104       547.2          0.5000E+05       546.7    
    700      1     84     94       520.4          0.5000E+05       519.9    
    701      1     84     94       556.7          0.5000E+05       556.2    
    702      1     84    124       604.6          0.5000E+05       604.1    
    703      1     84      9       440.7          0.5000E+05       440.2    
    704      1     84     39       454.1          0.5000E+05       453.6    
    705      1     84     40       459.8          0.5000E+05       459.3    
    706      1     84     40       460.0          0.5000E+05       459.5    
    707      1     84     62       481.1          0.5000E+05       480.6    
    708      1     84     40       459.5          0.5000E+05       459.0    
    709      1     84     91       519.9          0.5000E+05       519.4    
    710      1     84     91       521.5          0.5000E+05       521.0    
    711      1     84     91       527.0          0.5000E+05       526.5    
    712      1     84    104       553.9          0.5000E+05       553.4    
    713      1     84     94       519.9          0.5000E+05       519.4    
    714      1     84     95       577.5          0.5000E+05       577.0    
    715      1     84     95       581.3          0.5000E+05       580.8    
    716      1     84    124       599.7          0.5000E+05       599.2    
    717      1     84      9       440.7          0.5000E+05       440.2    
    718      1     84      9       440.7          0.5000E+05       440.2    
    719      1     84     40       451.9          0.5000E+05       451.4    
    720      1     84     40       460.0          0.5000E+05       459.5    
    721      1     84     62       481.3          0.5000E+05       480.8    
    722      1     84     62       479.6          0.5000E+05       479.1    
    723      1     84     62       481.7          0.5000E+05       481.2    
    724      1     84     40       459.7          0.5000E+05       459.2    
    725      1     84     90       522.5          0.5000E+05       522.0    
    726      1     84     90       520.0          0.5000E+05       519.5    
    727      1     84     91       521.2          0.5000E+05       520.7    
    728      1     84    104       555.2          0.5000E+05       554.7    
    729      1     84     95       562.9          0.5000E+05       562.4    
    730      1     84     95       555.6          0.5000E+05       555.1    
    731      1     84     90       524.2          0.5000E+05       523.7    
    732      1     84    124       599.7          0.5000E+05       599.2    
    733      1     84    124       599.7          0.5000E+05       599.2    
    734      1     84      9       441.4          0.5000E+05       440.9    
    735      1     84     40       452.1          0.5000E+05       451.6    
    736      1     84     40       460.0          0.5000E+05       459.5    
    737      1     84     62       476.4          0.5000E+05       475.9    
    738      1     84     62       480.8          0.5000E+05       480.3    
    739      1     84     62       483.4          0.5000E+05       482.9    
    740      1     84     40       459.7          0.5000E+05       459.2    
    741      1     84    104       555.4          0.5000E+05       554.9    
    742      1     84    104       556.7          0.5000E+05       556.2    
    743      1     84    105       555.4          0.5000E+05       554.9    
    744      1     84     95       528.6          0.5000E+05       528.1    
    745      1     84     95       558.9          0.5000E+05       558.4    
    746      1     84     90       522.9          0.5000E+05       522.4    
    747      1     84     90       524.8          0.5000E+05       524.3    
    748      1     84     90       522.2          0.5000E+05       521.7    
    749      1     84    125       600.5          0.5000E+05       600.0    
    750      1     84    124       606.6          0.5000E+05       606.1    
    751      1     84    125       601.4          0.5000E+05       600.9    
    752      1     84      9       441.4          0.5000E+05       440.9    
    753      1     84      9       440.7          0.5000E+05       440.2    
    754      1     84     40       459.6          0.5000E+05       459.1    
    755      1     84     40       459.7          0.5000E+05       459.2    
    756      1     84     41       460.1          0.5000E+05       459.6    
    757      1     84     62       479.2          0.5000E+05       478.7    
    758      1     84     62       477.0          0.5000E+05       476.5    
    759      1     84     62       484.2          0.5000E+05       483.7    
    760      1     84     41       459.4          0.5000E+05       458.9    
    761      1     84    104       553.3          0.5000E+05       552.8    
    762      1     84    105       549.7          0.5000E+05       549.2    
    763      1     84     95       530.1          0.5000E+05       529.6    
    764      1     84     89       523.6          0.5000E+05       523.1    
    765      1     84     90       522.1          0.5000E+05       521.6    
    766      1     84    125       599.6          0.5000E+05       599.1    
    767      1     84    125       610.0          0.5000E+05       609.5    
    768      1     84    125       599.7          0.5000E+05       599.2    
    769      1     84    125       599.8          0.5000E+05       599.3    
    770      1     84    125       599.7          0.5000E+05       599.2    
    771      1     84    142       629.3          0.5000E+05       628.8    
    772      1     84    142       628.4          0.5000E+05       627.9    
    773      1     84    142       632.1          0.5000E+05       631.6    
    774      1     84    142       634.8          0.5000E+05       634.3    
    775      1     84    142       634.7          0.5000E+05       634.2    
    776      1     84    143       626.0          0.5000E+05       625.5    
    777      1     84    143       644.8          0.5000E+05       644.3    
    778      1     83      9       441.0          0.5000E+05       440.5    
    779      1     83     41       452.2          0.5000E+05       451.7    
    780      1     83     41       459.9          0.5000E+05       459.4    
    781      1     83     62       478.0          0.5000E+05       477.5    
    782      1     83     62       474.9          0.5000E+05       474.4    
    783      1     83     62       480.4          0.5000E+05       479.9    
    784      1     83     62       479.7          0.5000E+05       479.2    
    785      1     83     41       459.7          0.5000E+05       459.2    
    786      1     83    104       551.5          0.5000E+05       551.0    
    787      1     83    105       549.7          0.5000E+05       549.2    
    788      1     83     95       522.3          0.5000E+05       521.8    
    789      1     83     89       524.1          0.5000E+05       523.6    
    790      1     83     89       523.0          0.5000E+05       522.5    
    791      1     83    147       655.0          0.5000E+05       654.5    
    792      1     83    125       599.7          0.5000E+05       599.2    
    793      1     83    126       608.0          0.5000E+05       607.5    
    794      1     83    125       606.0          0.5000E+05       605.5    
    795      1     83    125       599.8          0.5000E+05       599.3    
    796      1     83    142       638.4          0.5000E+05       637.9    
    797      1     83    143       626.4          0.5000E+05       625.9    
    798      1     83    143       638.3          0.5000E+05       637.8    
    799      1     83    143       659.8          0.5000E+05       659.3    
    800      1     83      9       440.7          0.5000E+05       440.2    
    801      1     83     10       442.0          0.5000E+05       441.5    
    802      1     83     41       452.2          0.5000E+05       451.7    
    803      1     83     41       459.8          0.5000E+05       459.3    
    804      1     83     62       481.8          0.5000E+05       481.3    
    805      1     83     62       482.6          0.5000E+05       482.1    
    806      1     83     62       479.9          0.5000E+05       479.4    
    807      1     83     41       459.8          0.5000E+05       459.3    
    808      1     83    104       549.8          0.5000E+05       549.3    
    809      1     83    105       549.7          0.5000E+05       549.2    
    810      1     83     95       529.8          0.5000E+05       529.3    
    811      1     83     89       524.3          0.5000E+05       523.8    
    812      1     83     89       523.0          0.5000E+05       522.5    
    813      1     83    146       650.2          0.5000E+05       649.7    
    814      1     83    147       639.8          0.5000E+05       639.3    
    815      1     83    147       648.3          0.5000E+05       647.8    
    816      1     83    147       646.2          0.5000E+05       645.7    
    817      1     83    147       646.6          0.5000E+05       646.1    
    818      1     83    147       661.7          0.5000E+05       661.2    
    819      1     83    126       610.8          0.5000E+05       610.3    
    820      1     83    126       609.8          0.5000E+05       609.3    
    821      1     83    126       606.4          0.5000E+05       605.9    
    822      1     83    141       638.6          0.5000E+05       638.1    
    823      1     83    142       640.6          0.5000E+05       640.1    
    824      1     83    143       628.8          0.5000E+05       628.3    
    825      1     83    143       639.5          0.5000E+05       639.0    
    826      1     83     10       442.0          0.5000E+05       441.5    
    827      1     83     10       443.0          0.5000E+05       442.5    
    828      1     83     41       460.6          0.5000E+05       460.1    
    829      1     83     41       452.2          0.5000E+05       451.7    
    830      1     83     41       452.2          0.5000E+05       451.7    
    831      1     83     42       459.9          0.5000E+05       459.4    
    832      1     83     62       472.9          0.5000E+05       472.4    
    833      1     83     62       479.7          0.5000E+05       479.2    
    834      1     83     42       470.0          0.5000E+05       469.5    
    835      1     83    105       548.6          0.5000E+05       548.1    
    836      1     83     95       529.6          0.5000E+05       529.1    
    837      1     83     89       522.9          0.5000E+05       522.4    
    838      1     83     89       522.6          0.5000E+05       522.1    
    839      1     83    146       641.0          0.5000E+05       640.5    
    840      1     83    146       640.0          0.5000E+05       639.5    
    841      1     83    147       645.5          0.5000E+05       645.0    
    842      1     83    147       638.7          0.5000E+05       638.2    
    843      1     83    147       641.8          0.5000E+05       641.3    
    844      1     83    148       644.7          0.5000E+05       644.2    
    845      1     83    126       605.2          0.5000E+05       604.7    
    846      1     83    126       606.3          0.5000E+05       605.8    
    847      1     83    141       633.3          0.5000E+05       632.8    
    848      1     83    141       628.0          0.5000E+05       627.5    
    849      1     83    141       644.5          0.5000E+05       644.0    
    850      1     83    143       635.7          0.5000E+05       635.2    
    851      1     83    141       631.9          0.5000E+05       631.4    
    852      1     83     10       440.7          0.5000E+05       440.2    
    853      1     83     42       452.2          0.5000E+05       451.7    
    854      1     83     42       459.5          0.5000E+05       459.0    
    855      1     83     42       459.1          0.5000E+05       458.6    
    856      1     83     42       460.2          0.5000E+05       459.7    
    857      1     83     43       459.8          0.5000E+05       459.3    
    858      1     83     43       458.6          0.5000E+05       458.1    
    859      1     83     43       455.7          0.5000E+05       455.2    
    860      1     83     43       455.2          0.5000E+05       454.7    
    861      1     83     43       458.4          0.5000E+05       457.9    
    862      1     83     44       452.1          0.5000E+05       451.6    
    863      1     83     44       454.4          0.5000E+05       453.9    
    864      1     83     44       457.3          0.5000E+05       456.8    
    865      1     83     44       465.0          0.5000E+05       464.5    
    866      1     83     44       462.7          0.5000E+05       462.2    
    867      1     83     45       454.7          0.5000E+05       454.2    
    868      1     83     45       454.5          0.5000E+05       454.0    
    869      1     83     45       455.7          0.5000E+05       455.2    
    870      1     83     45       467.1          0.5000E+05       466.6    
    871      1     83     45       465.7          0.5000E+05       465.2    
    872      1     83     62       472.8          0.5000E+05       472.3    
    873      1     83     63       479.5          0.5000E+05       479.0    
    874      1     83     62       479.9          0.5000E+05       479.4    
    875      1     83     46       464.6          0.5000E+05       464.1    
    876      1     83    105       546.8          0.5000E+05       546.3    
    877      1     83    105       550.1          0.5000E+05       549.6    
    878      1     83     95       529.7          0.5000E+05       529.2    
    879      1     83     88       519.4          0.5000E+05       518.9    
    880      1     83     88       520.4          0.5000E+05       519.9    
    881      1     83     89       521.5          0.5000E+05       521.0    
    882      1     83    144       638.3          0.5000E+05       637.8    
    883      1     83    144       649.9          0.5000E+05       649.4    
    884      1     83    145       654.0          0.5000E+05       653.5    
    885      1     83    145       667.8          0.5000E+05       667.3    
    886      1     83    146       639.7          0.5000E+05       639.2    
    887      1     83    146       639.5          0.5000E+05       639.0    
    888      1     83    146       645.6          0.5000E+05       645.1    
    889      1     83    146       640.7          0.5000E+05       640.2    
    890      1     83    148       641.5          0.5000E+05       641.0    
    891      1     83    148       651.9          0.5000E+05       651.4    
    892      1     83    148       669.1          0.5000E+05       668.6    
    893      1     83    126       606.2          0.5000E+05       605.7    
    894      1     83    126       608.2          0.5000E+05       607.7    
    895      1     83    134       625.5          0.5000E+05       625.0    
    896      1     83    143       636.8          0.5000E+05       636.3    
    897      1     83    144       635.4          0.5000E+05       634.9    
    898      1     83    144       639.5          0.5000E+05       639.0    
    899      1     83    134       628.5          0.5000E+05       628.0    
    900      1     83    140       638.8          0.5000E+05       638.3    
    901      1     83    140       632.3          0.5000E+05       631.8    
    902      1     83    141       630.0          0.5000E+05       629.5    
    903      1     83    141       630.9          0.5000E+05       630.4    
    904      1     82     10       440.7          0.5000E+05       440.2    
    905      1     82     10       440.7          0.5000E+05       440.2    
    906      1     82     45       454.7          0.5000E+05       454.2    
    907      1     82     46       465.0          0.5000E+05       464.5    
    908      1     82     46       466.2          0.5000E+05       465.7    
    909      1     82     62       476.7          0.5000E+05       476.2    
    910      1     82     63       479.7          0.5000E+05       479.2    
    911      1     82     62       480.1          0.5000E+05       479.6    
    912      1     82     46       463.9          0.5000E+05       463.4    
    913      1     82    105       550.3          0.5000E+05       549.8    
    914      1     82    105       548.9          0.5000E+05       548.4    
    915      1     82     95       530.8          0.5000E+05       530.3    
    916      1     82     88       518.4          0.5000E+05       517.9    
    917      1     82     88       514.9          0.5000E+05       514.4    
    918      1     82    144       632.9          0.5000E+05       632.4    
    919      1     82    145       634.8          0.5000E+05       634.3    
    920      1     82    145       649.9          0.5000E+05       649.4    
    921      1     82    145       649.5          0.5000E+05       649.0    
    922      1     82    145       632.6          0.5000E+05       632.1    
    923      1     82    148       644.2          0.5000E+05       643.7    
    924      1     82    148       657.0          0.5000E+05       656.5    
    925      1     82    126       605.4          0.5000E+05       604.9    
    926      1     82    127       610.1          0.5000E+05       609.6    
    927      1     82    127       609.8          0.5000E+05       609.3    
    928      1     82    127       609.7          0.5000E+05       609.2    
    929      1     82    133       624.6          0.5000E+05       624.1    
    930      1     82    134       625.5          0.5000E+05       625.0    
    931      1     82    134       614.6          0.5000E+05       614.1    
    932      1     82    128       609.3          0.5000E+05       608.8    
    933      1     82    144       635.9          0.5000E+05       635.4    
    934      1     82    144       636.9          0.5000E+05       636.4    
    935      1     82    144       632.5          0.5000E+05       632.0    
    936      1     82    140       646.9          0.5000E+05       646.4    
    937      1     82    140       630.7          0.5000E+05       630.2    
    938      1     82    134       615.8          0.5000E+05       615.3    
    939      1     82    134       622.2          0.5000E+05       621.7    
    940      1     82    134       633.2          0.5000E+05       632.7    
    941      1     82    135       642.4          0.5000E+05       641.9    
    942      1     82     10       440.7          0.5000E+05       440.2    
    943      1     82     46       456.0          0.5000E+05       455.5    
    944      1     82     46       463.9          0.5000E+05       463.4    
    945      1     82     62       473.6          0.5000E+05       473.1    
    946      1     82     63       479.7          0.5000E+05       479.2    
    947      1     82     62       479.8          0.5000E+05       479.3    
    948      1     82     46       464.9          0.5000E+05       464.4    
    949      1     82    105       550.1          0.5000E+05       549.6    
    950      1     82     95       525.2          0.5000E+05       524.7    
    951      1     82     88       518.4          0.5000E+05       517.9    
    952      1     82     88       514.3          0.5000E+05       513.8    
[...]
        681.9       709.1       736.5       766.3       797.1       821.3       821.2       817.3       813.1       807.4    
        800.5       792.0       782.0       769.9       754.3       733.9       705.7       672.5       657.2       625.1    
        615.6       609.0       612.5       609.0       610.9       619.2       619.5       613.7       617.0       627.8    
        640.2       651.7       664.7       677.1       687.5       696.6       701.7       701.1       702.6       703.3    
        708.8       712.2       712.0       709.4       706.2       702.7       699.4       696.2       693.2       691.2    
        689.8       688.9       688.7       688.9       689.4       690.0       690.5       690.9       691.2       691.3    
  92    455.7       454.1       450.8       446.0       439.5       443.3       448.6       453.9       461.9       470.0    
        476.6       481.9       485.9       488.8       490.6       491.5       491.7       491.7       490.0       484.7    
        481.1       478.6       477.4       476.3       476.0       477.5       481.7       484.2       486.2       487.1    
        486.9       488.0       487.0       486.4       485.4       485.8       486.3       486.5       488.0       490.2    
        492.3       494.4       496.4       498.4       500.8       504.0       506.2       508.1       509.4       511.4    
        511.4       511.4       510.6       508.8       506.5       504.0       501.6       499.1       497.1       495.5    
        493.6       491.4       503.7       512.6       522.1       530.6       538.6       546.5       553.8       560.1    
        565.7       570.6       574.4       577.3       579.6       580.9       581.4       581.5       582.7       584.3    
        586.4       589.4       593.5       599.0       605.3       612.6       630.6       657.3       679.6       706.2    
        731.8       754.0       777.4       801.2       823.0       828.2       826.5       822.3       817.0       810.8    
        803.7       796.0       787.6       778.2       767.4       755.0       740.5       724.4       713.7       680.2    
        666.6       656.6       651.7       645.9       642.7       644.7       643.6       643.2       647.8       656.0    
        665.8       676.8       689.3       701.4       711.8       719.2       723.4       725.0       725.5       721.4    
        718.8       724.7       724.2       721.1       716.9       712.0       707.3       703.0       699.4       696.7    
        694.8       693.6       692.9       692.9       693.4       693.9       694.3       694.7       694.9       695.1    
  93    450.9       449.9       447.8       445.1       442.3       443.2       455.2       463.5       471.3       478.3    
        484.4       489.4       493.3       496.2       498.2       499.2       499.8       500.4       500.8       501.2    
        498.9       494.8       487.7       483.7       485.5       487.1       488.0       490.1       492.1       493.3    
        494.7       491.8       491.4       490.8       489.4       487.6       487.5       487.6       489.0       490.7    
        492.4       494.2       496.0       497.8       499.7       502.3       504.5       505.5       505.8       507.7    
        508.8       508.5       508.1       506.7       504.7       502.3       499.6       497.0       495.0       492.7    
        490.5       490.5       503.2       512.5       522.3       531.0       539.1       546.7       554.0       560.4    
        565.8       570.8       574.8       577.7       579.9       581.2       582.0       583.6       585.8       588.8    
        592.5       597.2       603.6       611.8       622.0       636.5       663.3       700.9       736.8       762.0    
        780.8       796.6       815.2       834.7       841.8       836.9       833.6       828.2       822.1       815.2    
        807.6       799.6       791.8       784.1       775.9       767.1       758.4       749.3       743.0       735.1    
        713.3       697.2       685.1       677.0       670.7       668.2       667.3       668.6       672.9       679.7    
        689.2       700.3       713.5       727.1       738.6       744.7       748.3       750.1       751.8       754.3    
        744.8       740.8       737.7       733.1       727.3       720.0       714.1       709.1       704.5       700.7    
        698.4       697.0       696.3       696.4       696.8       697.3       697.7       698.1       698.4       698.5    
  94    446.3       445.7       444.1       442.8       445.2       454.1       463.6       471.7       479.1       485.6    
        491.2       495.6       499.2       502.2       504.4       505.2       505.1       506.3       507.4       512.1    
        515.3       513.0       504.6       495.3       492.6       491.5       491.3       492.5       493.9       495.7    
        497.2       494.9       494.3       493.2       492.4       489.9       488.8       488.8       490.0       491.3    
        492.7       494.3       495.7       497.4       499.2       501.0       502.8       503.8       504.5       505.5    
        506.5       506.3       505.8       504.6       502.7       500.3       497.8       495.6       493.7       491.6    
        490.0       490.1       499.7       510.5       520.4       529.6       537.5       544.9       551.9       558.2    
        563.8       568.8       572.9       576.1       578.7       580.8       582.8       585.5       588.9       593.1    
        598.4       605.2       614.1       624.8       639.0       658.0       699.6       748.6       783.5       815.8    
        827.4       833.7       848.2       853.9       848.3       843.4       839.3       834.2       827.6       820.5    
        812.6       804.1       796.1       789.3       782.7       775.8       769.4       763.9       760.8       764.4    
        752.1       730.8       713.6       702.3       694.7       689.8       688.2       689.5       693.7       700.7    
        710.9       723.6       738.8       754.6       766.9       771.7       773.8       773.9       776.6       776.5    
        769.9       757.6       751.0       745.3       738.5       726.4       719.0       713.7       707.7       703.4    
        700.7       699.1       698.5       699.1       699.7       700.3       700.7       701.1       701.4       701.5    
  95    440.9       441.2       439.1       442.9       454.4       463.1       471.5       479.1       485.9       491.8    
        496.6       500.6       504.0       507.4       508.8       509.2       510.6       511.2       512.1       517.0    
        519.2       518.9       510.6       503.5       499.4       497.7       496.5       495.7       496.0       497.8    
        498.4       497.4       496.2       494.3       492.8       491.4       490.7       490.7       491.2       492.0    
        493.1       494.6       495.8       497.2       498.7       500.2       501.6       502.6       503.4       504.1    
        504.9       504.8       504.0       502.8       501.0       498.8       496.7       494.8       493.3       491.6    
        489.9       490.4       498.6       509.1       518.4       527.4       535.4       542.1       548.7       554.9    
        560.5       565.6       570.0       573.8       577.0       580.1       583.4       587.1       591.6       597.1    
        604.1       613.5       624.4       638.4       657.3       685.8       735.2       780.9       828.1       871.7    
        867.6       862.7       866.9       860.6       854.4       849.0       844.1       839.5       832.9       825.9    
        817.8       809.2       801.0       794.5       789.1       783.4       778.2       773.9       771.1       770.7    
        770.3       756.9       735.1       720.4       712.1       707.3       706.0       707.5       712.2       720.4    
        732.3       747.4       764.6       782.3       798.5       801.0       799.4       795.0       791.2       783.9    
        776.8       768.6       762.3       757.3       753.4       742.3       721.8       718.4       714.3       709.8    
        708.1       704.1       701.9       701.2       702.1       702.8       703.3       703.7       704.0       704.2    
  96    445.2       450.0       452.5       457.1       464.3       471.6       479.0       485.6       491.4       496.6    
        500.9       504.7       508.4       511.1       511.7       512.9       514.5       514.6       515.7       518.3    
        519.4       516.8       510.6       505.7       502.1       500.6       499.8       498.6       497.6       497.9    
        498.0       497.1       495.9       494.7       493.4       492.4       492.1       492.1       492.2       492.5    
        493.7       495.2       496.1       497.1       498.4       499.7       500.8       501.6       502.3       503.0    
        503.4       503.2       502.5       501.4       499.8       497.9       496.0       494.7       493.7       493.0    
        493.7       493.7       501.1       510.1       518.8       525.8       533.0       539.7       546.2       552.2    
        557.9       562.9       567.5       571.6       575.6       579.6       583.8       588.4       593.9       600.7    
        610.1       621.9       635.4       652.8       675.8       712.3       758.7       803.7       862.5       907.7    
        898.7       880.6       872.3       866.6       860.3       854.5       849.6       844.1       837.7       830.8    
        823.1       814.5       806.1       799.3       794.5       790.0       785.7       781.9       778.6       775.9    
        772.3       769.3       751.3       734.1       725.1       720.9       720.3       723.0       728.7       738.5    
        752.6       770.5       790.8       811.1       821.7       819.4       814.4       807.7       798.3       790.6    
        783.7       777.1       771.6       767.5       765.2       766.5       744.4       730.7       725.1       719.2    
        716.7       712.0       707.4       704.4       704.0       704.9       705.5       706.0       706.3       706.5    
  97    457.3       460.0       463.2       467.4       472.8       478.9       485.0       490.5       495.7       500.4    
        504.3       508.2       511.9       513.8       514.7       515.9       516.5       516.3       516.3       517.4    
        517.5       515.1       511.2       507.3       504.2       501.7       500.9       499.8       498.8       498.3    
        497.7       496.8       495.8       494.8       493.9       493.1       492.7       492.7       492.8       493.1    
        494.3       495.4       496.2       497.1       498.1       499.2       500.1       500.8       501.3       501.7    
        502.1       502.0       501.4       500.4       499.0       497.4       495.9       495.0       494.2       493.1    
        491.1       492.3       501.7       511.5       519.1       525.2       531.4       537.4       543.9       550.2    
        555.6       560.7       565.5       569.8       574.3       579.0       583.8       589.2       595.8       603.9    
        615.3       629.6       645.6       665.0       689.8       728.5       774.1       819.1       875.1       913.1    
        914.5       893.9       878.2       872.2       865.3       859.3       854.2       848.3       841.7       834.6    
        827.1       819.4       811.4       804.4       799.3       795.5       792.0       788.5       784.8       780.7    
        774.5       766.8       754.0       742.1       734.7       731.5       731.8       735.6       742.9       754.6    
        771.4       792.9       816.5       827.4       825.4       822.3       817.1       810.8       803.3       796.3    
        789.8       783.9       779.0       775.3       773.0       772.3       764.1       747.2       736.2       727.5    
        720.6       716.0       711.6       708.5       706.5       706.5       707.2       707.7       708.2       708.4    
  98    466.4       468.2       470.9       474.6       479.1       484.2       489.3       494.1       498.8       503.1    
        507.1       511.2       514.8       516.2       517.5       518.3       518.1       517.0       516.5       516.5    
        515.8       514.0       511.4       508.5       506.2       503.3       501.4       500.6       499.6       498.9    
        498.0       496.8       495.7       495.0       494.3       493.6       493.2       493.2       493.4       493.7    
        494.6       495.4       496.2       497.1       498.1       498.9       499.6       500.2       500.6       500.8    
        501.1       501.1       500.5       499.6       498.5       497.1       496.2       495.5       495.3       495.8    
        499.5       513.2       508.5       513.1       519.1       524.7       530.5       536.4       542.4       548.3    
        553.8       559.0       563.8       568.5       573.3       578.4       583.6       589.6       597.1       606.4    
        619.4       636.3       654.4       675.4       702.9       740.5       786.7       833.8       882.7       914.3    
        914.8       898.7       883.3       877.1       869.7       863.1       857.2       851.2       844.9       837.8    
        830.2       822.7       815.5       808.8       803.5       799.9       797.0       794.0       789.8       783.5    
        775.5       766.7       756.2       747.2       741.6       739.4       740.7       745.6       754.3       767.9    
        787.7       813.0       830.7       830.3       828.3       824.9       819.8       813.8       807.2       800.8    
        794.7       789.2       784.6       781.0       778.6       777.2       776.7       761.0       744.4       733.6    
        725.8       719.9       715.1       711.6       709.3       708.2       708.4       708.9       709.7       710.0    
  99    472.3       473.6       475.8       479.1       483.2       487.6       492.1       496.5       500.8       505.2    
        509.6       514.0       517.3       519.1       520.0       520.6       519.3       517.3       516.5       516.0    
        515.1       513.5       511.7       509.2       506.2       503.9       502.2       500.9       499.7       499.0    
        498.1       497.1       495.9       495.0       494.5       494.0       493.6       493.6       493.7       494.1    
        494.7       495.4       496.1       497.0       498.0       498.7       499.4       499.9       500.2       500.5    
        500.6       500.5       500.0       499.2       498.1       497.1       496.4       496.0       495.9       496.4    
        497.4       497.4       504.6       512.2       518.6       524.3       529.8       535.8       541.8       547.4    
        552.8       557.9       562.8       567.7       572.7       577.9       583.5       589.7       597.4       607.8    
        623.0       641.7       660.3       684.4       715.5       749.2       795.0       842.8       884.4       912.8    
        911.2       901.1       889.8       881.0       872.5       865.6       859.6       853.3       846.4       839.1    
        832.2       825.3       818.3       811.9       806.7       803.0       800.5       798.8       793.2       785.4    
        776.8       767.5       758.0       750.5       746.1       744.8       746.8       752.5       762.7       778.0    
        799.9       823.8       832.6       832.2       830.3       826.8       821.9       816.2       810.0       803.9    
        798.2       792.8       788.4       784.8       782.2       780.3       778.8       766.9       749.7       737.2    
        728.7       722.7       717.6       713.8       711.3       709.9       709.4       710.0       711.1       711.3    
 100    475.1       476.1       478.3       481.5       485.2       489.3       493.4       497.5       501.8       506.6    
        511.4       515.7       519.2       520.7       521.3       521.7       521.0       518.3       516.5       515.8    
        514.7       513.3       511.7       510.1       506.7       503.8       502.7       501.0       499.6       499.0    
        498.4       497.1       495.7       495.1       494.6       494.2       493.8       493.8       493.9       494.3    
        494.8       495.5       496.2       496.9       497.8       498.7       499.2       499.7       500.0       500.3    
        500.4       500.2       499.8       499.0       498.0       497.1       496.5       496.2       496.1       496.3    
        496.4       495.5       504.2       512.3       518.4       524.0       529.2       535.4       541.6       547.0    
        552.3       557.4       562.3       567.2       572.3       577.6       583.5       590.0       597.2       606.6    
        625.1       647.2       665.5       689.8       720.3       753.0       799.3       847.7       881.0       904.7    
        908.8       902.2       892.3       883.0       873.9       866.9       860.8       854.4       847.3       839.7    
        833.1       826.8       819.9       813.5       808.2       804.5       802.2       800.8       795.8       787.2    
        778.0       768.4       759.2       752.2       748.4       747.5       749.9       756.3       767.4       783.9    
        810.0       832.2       833.7       833.2       831.2       827.8       823.0       817.5       811.5       805.6    
        799.9       794.7       790.3       786.8       784.0       781.8       780.2       768.9       751.6       738.8    
        730.0       723.9       718.9       715.0       712.3       710.8       710.3       711.0       711.8       711.9    

 HEAD WILL BE SAVED ON UNIT   51 AT END OF TIME STEP    1, STRESS PERIOD    1
1
  VOLUMETRIC BUDGET FOR ENTIRE MODEL AT END OF TIME STEP    1, STRESS PERIOD   1
  ------------------------------------------------------------------------------

     CUMULATIVE VOLUMES      L**3       RATES FOR THIS TIME STEP      L**3/T
     ------------------                 ------------------------

           IN:                                      IN:
           ---                                      ---
             STORAGE =           0.0000               STORAGE =           0.0000
       CONSTANT HEAD =           0.0000         CONSTANT HEAD =           0.0000
       RIVER LEAKAGE =    25333756.0000         RIVER LEAKAGE =    25333756.0000
            RECHARGE =   213952144.0000              RECHARGE =   213952144.0000

            TOTAL IN =   239285904.0000              TOTAL IN =   239285904.0000

          OUT:                                     OUT:
          ----                                     ----
             STORAGE =           0.0000               STORAGE =           0.0000
       CONSTANT HEAD =           0.0000         CONSTANT HEAD =           0.0000
       RIVER LEAKAGE =   680392192.0000         RIVER LEAKAGE =   680392192.0000
            RECHARGE =           0.0000              RECHARGE =           0.0000

           TOTAL OUT =   680392192.0000             TOTAL OUT =   680392192.0000

            IN - OUT =  -441106304.0000              IN - OUT =  -441106304.0000

 PERCENT DISCREPANCY =         -95.93     PERCENT DISCREPANCY =         -95.93






         TIME SUMMARY AT END OF TIME STEP    1 IN STRESS PERIOD    1
                    SECONDS     MINUTES      HOURS       DAYS        YEARS
                    -----------------------------------------------------------
   TIME STEP LENGTH  86400.      1440.0      24.000      1.0000     2.73785E-03
 STRESS PERIOD TIME  86400.      1440.0      24.000      1.0000     2.73785E-03
         TOTAL TIME  86400.      1440.0      24.000      1.0000     2.73785E-03
1

 Run end date and time (yyyy/mm/dd hh:mm:ss): 2021/04/12  2:51:55
 Elapsed run time:  0.066 Seconds

