                                  MODFLOW-2005     
      U.S. GEOLOGICAL SURVEY MODULAR FINITE-DIFFERENCE GROUND-WATER FLOW MODEL
                            VERSION 1.12.00 2/3/2017

 LIST FILE: my_model2.list
                         UNIT    2

 OPENING my_model2.dis
 FILE TYPE:DIS   UNIT   11   STATUS:OLD    
 FORMAT:FORMATTED              ACCESS:SEQUENTIAL          

 OPENING my_model2.bas
 FILE TYPE:BAS6   UNIT   13   STATUS:OLD    
 FORMAT:FORMATTED              ACCESS:SEQUENTIAL          

 OPENING my_model2.riv
 FILE TYPE:RIV   UNIT   18   STATUS:OLD    
 FORMAT:FORMATTED              ACCESS:SEQUENTIAL          

 OPENING my_model2.lpf
 FILE TYPE:LPF   UNIT   15   STATUS:OLD    
 FORMAT:FORMATTED              ACCESS:SEQUENTIAL          

 OPENING my_model2.drn
 FILE TYPE:DRN   UNIT   21   STATUS:OLD    
 FORMAT:FORMATTED              ACCESS:SEQUENTIAL          

 OPENING my_model2.rch
 FILE TYPE:RCH   UNIT   19   STATUS:OLD    
 FORMAT:FORMATTED              ACCESS:SEQUENTIAL          

 OPENING my_model2.oc
 FILE TYPE:OC   UNIT   14   STATUS:OLD    
 FORMAT:FORMATTED              ACCESS:SEQUENTIAL          

 OPENING my_model2.pcg
 FILE TYPE:PCG   UNIT   27   STATUS:OLD    
 FORMAT:FORMATTED              ACCESS:SEQUENTIAL          

 OPENING my_model2.cbc
 FILE TYPE:DATA(BINARY)   UNIT    1   STATUS:REPLACE
 FORMAT:BINARY                 ACCESS:SEQUENTIAL          

 OPENING my_model2.hds
 FILE TYPE:DATA(BINARY)   UNIT   51   STATUS:REPLACE
 FORMAT:BINARY                 ACCESS:SEQUENTIAL          

 BAS -- BASIC PACKAGE, VERSION 7, 5/2/2005 INPUT READ FROM UNIT   13
 
 MODFLOW was compiled using mixed precision
 Precision of REAL variables:           6
 Precision of DOUBLE PRECISION variables:          15

 DISCRETIZATION INPUT DATA READ FROM UNIT   11
 # DIS package for  MODFLOW-2005, generated by Flopy.
    2 LAYERS        50 ROWS        75 COLUMNS
    1 STRESS PERIOD(S) IN SIMULATION
 MODEL TIME UNIT IS DAYS
 MODEL LENGTH UNIT IS FEET
  Confining bed flag for each layer:
   0   0

                     DELR =   5851.31    

                     DELC =   5455.20    



           TOP ELEVATION OF LAYER 1
 READING ON UNIT   11 WITH FORMAT: (75E15.6)           



             MODEL LAYER BOTTOM EL. FOR LAYER   1
 READING ON UNIT   11 WITH FORMAT: (75E15.6)           



             MODEL LAYER BOTTOM EL. FOR LAYER   2
 READING ON UNIT   11 WITH FORMAT: (75E15.6)           


 STRESS PERIOD     LENGTH       TIME STEPS     MULTIPLIER FOR DELT    SS FLAG
 ----------------------------------------------------------------------------
        1         1.000000          1                    1.000         SS

 STEADY-STATE SIMULATION



 
 # BAS6 package for  MODFLOW-2005, generated by Flopy.                           
 THE FREE FORMAT OPTION HAS BEEN SELECTED



                     BOUNDARY ARRAY FOR LAYER   1
 READING ON UNIT   13 WITH FORMAT: (75I10)             



                     BOUNDARY ARRAY FOR LAYER   2
 READING ON UNIT   13 WITH FORMAT: (75I10)             

 AQUIFER HEAD WILL BE SET TO  -999.99     AT ALL NO-FLOW NODES (IBOUND=0).

             INITIAL HEAD =   10000.0     FOR LAYER   1

             INITIAL HEAD =   10000.0     FOR LAYER   2
 # OC package for  MODFLOW-2005, generated by Flopy.

 OUTPUT CONTROL IS SPECIFIED ONLY AT TIME STEPS FOR WHICH OUTPUT IS DESIRED
 COMPACT CELL-BY-CELL BUDGET FILES WILL BE WRITTEN
 AUXILIARY DATA WILL BE SAVED IN CELL-BY-CELL BUDGET FILES
 HEAD PRINT FORMAT CODE IS   0    DRAWDOWN PRINT FORMAT CODE IS   0
 HEADS WILL BE SAVED ON UNIT   51    DRAWDOWNS WILL BE SAVED ON UNIT    0

 LPF -- LAYER-PROPERTY FLOW PACKAGE, VERSION 7, 5/2/2005
         INPUT READ FROM UNIT   15
 # LPF package for  MODFLOW-2005, generated by Flopy.
 CELL-BY-CELL FLOWS WILL BE SAVED ON UNIT    1
 HEAD AT CELLS THAT CONVERT TO DRY= -1.00000E+30
 No named parameters

   LAYER FLAGS:
 LAYER       LAYTYP        LAYAVG         CHANI        LAYVKA        LAYWET
 ---------------------------------------------------------------------------
    1             1             0     1.000E+00             0             0
    2             1             0     1.000E+00             0             0

   INTERPRETATION OF LAYER FLAGS:
                        INTERBLOCK     HORIZONTAL    DATA IN
         LAYER TYPE   TRANSMISSIVITY   ANISOTROPY   ARRAY VKA   WETTABILITY
 LAYER      (LAYTYP)      (LAYAVG)       (CHANI)      (LAYVKA)      (LAYWET)
 ---------------------------------------------------------------------------
    1   CONVERTIBLE      HARMONIC     1.000E+00    VERTICAL K  NON-WETTABLE
    2   CONVERTIBLE      HARMONIC     1.000E+00    VERTICAL K  NON-WETTABLE

 WETTING CAPABILITY IS NOT ACTIVE IN ANY LAYER



              HYD. COND. ALONG ROWS FOR LAYER   1
 READING ON UNIT   15 WITH FORMAT: (75E15.6)           



                VERTICAL HYD. COND. FOR LAYER   1
 READING ON UNIT   15 WITH FORMAT: (75E15.6)           



              HYD. COND. ALONG ROWS FOR LAYER   2
 READING ON UNIT   15 WITH FORMAT: (75E15.6)           



                VERTICAL HYD. COND. FOR LAYER   2
 READING ON UNIT   15 WITH FORMAT: (75E15.6)           

 DRN -- DRAIN PACKAGE, VERSION 7, 5/2/2005 INPUT READ FROM UNIT   21
 # DRN package for  MODFLOW-2005, generated by Flopy.
 No named parameters
 MAXIMUM OF   3095 ACTIVE DRAINS AT ONE TIME


     0 Drain parameters

 RIV -- RIVER PACKAGE, VERSION 7, 5/2/2005 INPUT READ FROM UNIT   18
 # RIV package for  MODFLOW-2005, generated by Flopy.
 No named parameters
 MAXIMUM OF    358 ACTIVE RIVER REACHES AT ONE TIME


     0 River parameters

 RCH -- RECHARGE PACKAGE, VERSION 7, 5/2/2005 INPUT READ FROM UNIT   19
 # RCH package for  MODFLOW-2005, generated by Flopy.
 No named parameters
 OPTION 3 -- RECHARGE TO HIGHEST ACTIVE NODE IN EACH VERTICAL COLUMN


     0 Recharge parameters

 PCG -- CONJUGATE-GRADIENT SOLUTION PACKAGE, VERSION 7, 5/2/2005
 # PCG package for  MODFLOW-2005, generated by Flopy.
 MAXIMUM OF     50 CALLS OF SOLUTION ROUTINE
 MAXIMUM OF     30 INTERNAL ITERATIONS PER CALL TO SOLUTION ROUTINE
 MATRIX PRECONDITIONING TYPE :    1



                                    SOLUTION BY THE CONJUGATE-GRADIENT METHOD
                                   -------------------------------------------
                    MAXIMUM NUMBER OF CALLS TO PCG ROUTINE =       50
                        MAXIMUM ITERATIONS PER CALL TO PCG =       30
                               MATRIX PRECONDITIONING TYPE =        1
        RELAXATION FACTOR (ONLY USED WITH PRECOND. TYPE 1) =    0.10000E+01
 PARAMETER OF POLYNOMIAL PRECOND. = 2 (2) OR IS CALCULATED :        0
                         HEAD CHANGE CRITERION FOR CLOSURE =    0.10000E-04
                     RESIDUAL CHANGE CRITERION FOR CLOSURE =    0.10000E-04
            PCG HEAD AND RESIDUAL CHANGE PRINTOUT INTERVAL =      999
     PRINTING FROM SOLVER IS LIMITED(1) OR SUPPRESSED (>1) =        3
                            STEADY-STATE DAMPING PARAMETER =    0.10000E+01
                               TRANSIENT DAMPING PARAMETER =    0.10000E+01
1
                            STRESS PERIOD NO.    1, LENGTH =   1.000000    
                            -----------------------------------------------

                              NUMBER OF TIME STEPS =     1

                               MULTIPLIER FOR DELT =     1.000

                            INITIAL TIME STEP SIZE =   1.000000    

 DRAIN NO.  LAYER   ROW   COL     DRAIN EL.  CONDUCTANCE         
 ----------------------------------------------------------------
      1      1      1      1       673.4           100.0    
      2      1      1      2       665.9           100.0    
      3      1      1      3       660.2           100.0    
      4      1      1      4       652.1           100.0    
      5      1      1      5       674.6           100.0    
      6      1      1      6       677.8           100.0    
      7      1      1      7       676.3           100.0    
      8      1      1      8       659.1           100.0    
      9      1      1     13       556.7           100.0    
     10      1      1     14       590.1           100.0    
     11      1      1     15       611.3           100.0    
     12      1      1     16       660.7           100.0    
     13      1      1     17       687.6           100.0    
     14      1      1     18       608.1           100.0    
     15      1      1     19       605.8           100.0    
     16      1      1     20       672.9           100.0    
     17      1      1     21       629.1           100.0    
     18      1      1     22       709.8           100.0    
     19      1      1     23       733.9           100.0    
     20      1      1     24       690.7           100.0    
     21      1      1     25       711.1           100.0    
     22      1      1     26       686.2           100.0    
     23      1      1     27       724.2           100.0    
     24      1      1     28       698.1           100.0    
     25      1      1     29       693.0           100.0    
     26      1      1     30       704.2           100.0    
     27      1      1     31       665.5           100.0    
     28      1      1     32       720.2           100.0    
     29      1      1     33       680.8           100.0    
     30      1      1     36       672.1           100.0    
     31      1      1     34       683.1           100.0    
     32      1      1     35       595.2           100.0    
     33      1      1     37       671.5           100.0    
     34      1      1     38       585.3           100.0    
     35      1      1     39       576.7           100.0    
     36      1      2      1       649.3           100.0    
     37      1      2      2       665.1           100.0    
     38      1      2      3       610.3           100.0    
     39      1      2      4       632.4           100.0    
     40      1      2      5       635.7           100.0    
     41      1      2      6       643.0           100.0    
     42      1      2      7       648.0           100.0    
     43      1      2     13       630.3           100.0    
     44      1      2     14       634.2           100.0    
     45      1      2     15       644.6           100.0    
     46      1      2     16       649.8           100.0    
     47      1      2     17       693.3           100.0    
     48      1      2     18       704.7           100.0    
     49      1      2     19       722.9           100.0    
     50      1      2     20       712.4           100.0    
     51      1      2     21       704.4           100.0    
     52      1      2     22       709.1           100.0    
     53      1      2     26       701.6           100.0    
     54      1      2     27       750.2           100.0    
     55      1      2     28       722.2           100.0    
     56      1      2     29       739.7           100.0    
     57      1      2     30       723.0           100.0    
     58      1      2     31       700.7           100.0    
     59      1      2     32       736.8           100.0    
     60      1      2     33       738.8           100.0    
     61      1      2     34       595.4           100.0    
     62      1      2     35       675.0           100.0    
     63      1      2     36       700.2           100.0    
     64      1      2     37       709.7           100.0    
     65      1      2     38       649.7           100.0    
     66      1      2     39       614.6           100.0    
     67      1      3      1       605.5           100.0    
     68      1      3      2       644.9           100.0    
     69      1      3      3       626.4           100.0    
     70      1      3      4       566.2           100.0    
     71      1      3      5       563.7           100.0    
     72      1      3      6       554.2           100.0    
     73      1      3      7       614.8           100.0    
     74      1      3     13       559.7           100.0    
     75      1      3     14       630.4           100.0    
     76      1      3     15       653.2           100.0    
     77      1      3     16       660.4           100.0    
     78      1      3     17       682.3           100.0    
     79      1      3     18       710.8           100.0    
     80      1      3     19       703.1           100.0    
     81      1      3     20       710.0           100.0    
     82      1      3     21       727.7           100.0    
     83      1      3     22       732.3           100.0    
     84      1      3     26       756.9           100.0    
     85      1      3     27       768.7           100.0    
     86      1      3     28       744.8           100.0    
     87      1      3     29       750.8           100.0    
     88      1      3     30       734.5           100.0    
     89      1      3     31       721.2           100.0    
     90      1      3     32       740.4           100.0    
     91      1      3     33       723.3           100.0    
     92      1      3     34       715.7           100.0    
     93      1      3     35       681.8           100.0    
     94      1      3     36       720.2           100.0    
     95      1      3     37       708.2           100.0    
     96      1      3     38       697.3           100.0    
     97      1      3     39       690.1           100.0    
     98      1      4      1       648.6           100.0    
     99      1      4      2       603.0           100.0    
    100      1      4      3       612.2           100.0    
    101      1      4      4       599.7           100.0    
    102      1      4      5       633.2           100.0    
    103      1      4      6       635.0           100.0    
    104      1      4      7       552.2           100.0    
    105      1      4     13       633.4           100.0    
    106      1      4     14       651.1           100.0    
    107      1      4     15       670.6           100.0    
    108      1      4     16       658.7           100.0    
    109      1      4     17       618.0           100.0    
    110      1      4     18       655.1           100.0    
    111      1      4     19       721.0           100.0    
    112      1      4     20       735.4           100.0    
    113      1      4     21       745.2           100.0    
    114      1      4     22       766.3           100.0    
    115      1      4     26       782.1           100.0    
    116      1      4     27       754.3           100.0    
    117      1      4     28       740.9           100.0    
    118      1      4     29       718.9           100.0    
    119      1      4     30       682.5           100.0    
    120      1      4     31       702.9           100.0    
    121      1      4     32       719.7           100.0    
    122      1      4     33       715.1           100.0    
    123      1      4     34       720.5           100.0    
    124      1      4     35       700.3           100.0    
    125      1      4     36       683.3           100.0    
    126      1      4     37       681.4           100.0    
    127      1      4     38       629.4           100.0    
    128      1      4     23       738.8           100.0    
    129      1      5      1       691.5           100.0    
    130      1      5      2       637.9           100.0    
    131      1      5      3       641.6           100.0    
    132      1      5      4       638.5           100.0    
    133      1      5      5       639.6           100.0    
    134      1      5      6       639.3           100.0    
    135      1      5      7       648.7           100.0    
    136      1      5     13       565.2           100.0    
    137      1      5     14       595.7           100.0    
    138      1      5     15       707.2           100.0    
    139      1      5     16       705.6           100.0    
    140      1      5     17       734.0           100.0    
    141      1      5     18       671.3           100.0    
    142      1      5     19       712.6           100.0    
    143      1      5     20       741.1           100.0    
    144      1      5     21       762.3           100.0    
    145      1      5     22       770.3           100.0    
    146      1      5     23       763.1           100.0    
    147      1      5     27       721.5           100.0    
    148      1      5     28       709.2           100.0    
    149      1      5     29       712.0           100.0    
    150      1      5     30       687.5           100.0    
    151      1      5     31       627.4           100.0    
    152      1      5     32       700.9           100.0    
    153      1      5     33       702.7           100.0    
    154      1      5     34       692.1           100.0    
    155      1      5     35       657.5           100.0    
    156      1      5     36       586.4           100.0    
    157      1      5     37       652.4           100.0    
    158      1      5     38       551.6           100.0    
    159      1      5     24       750.3           100.0    
    160      1      5     39       647.8           100.0    
    161      1      6      1       675.7           100.0    
    162      1      6      2       707.3           100.0    
    163      1      6      3       647.6           100.0    
    164      1      6      4       636.0           100.0    
    165      1      6      5       647.0           100.0    
    166      1      6      6       665.9           100.0    
    167      1      6      7       630.4           100.0    
    168      1      6     13       672.3           100.0    
    169      1      6     14       645.3           100.0    
    170      1      6     15       721.2           100.0    
    171      1      6     16       679.1           100.0    
    172      1      6     17       737.7           100.0    
    173      1      6     18       724.2           100.0    
    174      1      6     19       749.2           100.0    
    175      1      6     20       745.5           100.0    
    176      1      6     21       771.3           100.0    
    177      1      6     22       761.6           100.0    
    178      1      6     23       734.4           100.0    
    179      1      6     24       658.3           100.0    
    180      1      6     27       720.6           100.0    
    181      1      6     28       700.8           100.0    
    182      1      6     29       666.9           100.0    
    183      1      6     30       678.2           100.0    
    184      1      6     31       669.4           100.0    
    185      1      6     32       660.0           100.0    
    186      1      6     33       665.4           100.0    
    187      1      6     34       641.7           100.0    
    188      1      6     35       653.6           100.0    
    189      1      6     36       617.7           100.0    
    190      1      6     37       631.6           100.0    
    191      1      6     38       617.2           100.0    
    192      1      6     39       636.3           100.0    
    193      1      6     12       580.0           100.0    
    194      1      7      1       690.9           100.0    
    195      1      7      2       690.1           100.0    
    196      1      7      3       639.8           100.0    
    197      1      7      4       642.9           100.0    
    198      1      7      5       630.3           100.0    
    199      1      7      6       574.6           100.0    
    200      1      7      7       628.5           100.0    
    201      1      7     12       610.6           100.0    
    202      1      7     13       656.9           100.0    
    203      1      7     14       709.2           100.0    
    204      1      7     15       723.0           100.0    
    205      1      7     16       734.8           100.0    
    206      1      7     17       743.6           100.0    
    207      1      7     18       749.3           100.0    
    208      1      7     19       746.8           100.0    
    209      1      7     20       757.7           100.0    
    210      1      7     21       767.5           100.0    
    211      1      7     22       744.7           100.0    
    212      1      7     23       736.1           100.0    
    213      1      7     28       635.7           100.0    
    214      1      7     29       581.1           100.0    
    215      1      7     30       602.4           100.0    
    216      1      7     31       563.8           100.0    
    217      1      7     32       624.4           100.0    
    218      1      7     33       631.0           100.0    
    219      1      7     34       628.8           100.0    
    220      1      7     35       639.7           100.0    
    221      1      7     37       618.4           100.0    
    222      1      7     38       628.6           100.0    
    223      1      7     39       625.8           100.0    
    224      1      8      1       671.3           100.0    
    225      1      8      2       671.9           100.0    
    226      1      8      3       667.4           100.0    
    227      1      8      4       634.4           100.0    
    228      1      8      5       659.7           100.0    
    229      1      8      6       628.7           100.0    
    230      1      8      7       509.3           100.0    
    231      1      8     12       673.9           100.0    
    232      1      8     13       695.5           100.0    
    233      1      8     14       669.7           100.0    
    234      1      8     15       706.3           100.0    
    235      1      8     16       708.1           100.0    
    236      1      8     17       716.4           100.0    
    237      1      8     18       739.4           100.0    
    238      1      8     19       740.1           100.0    
    239      1      8     20       748.8           100.0    
    240      1      8     21       737.9           100.0    
    241      1      8     22       711.4           100.0    
    242      1      8     23       695.6           100.0    
    243      1      8     28       671.1           100.0    
    244      1      8     29       597.7           100.0    
    245      1      8     30       591.6           100.0    
    246      1      8     31       619.9           100.0    
    247      1      8     32       600.0           100.0    
    248      1      8     33       571.7           100.0    
    249      1      8     34       597.0           100.0    
    250      1      8     35       619.7           100.0    
    251      1      8     37       592.2           100.0    
    252      1      8     38       605.0           100.0    
    253      1      8     39       575.1           100.0    
    254      1      8     24       681.1           100.0    
    255      1      8     27       651.9           100.0    
    256      1      9      2       657.6           100.0    
    257      1      9      3       642.4           100.0    
    258      1      9      4       650.1           100.0    
    259      1      9      5       642.5           100.0    
    260      1      9      6       592.3           100.0    
    261      1      9      7       501.4           100.0    
    262      1      9     12       651.7           100.0    
    263      1      9     13       641.2           100.0    
    264      1      9     14       639.5           100.0    
    265      1      9     15       627.0           100.0    
    266      1      9     16       699.8           100.0    
    267      1      9     17       700.1           100.0    
    268      1      9     18       707.8           100.0    
    269      1      9     19       699.7           100.0    
    270      1      9     20       706.7           100.0    
    271      1      9     21       695.8           100.0    
    272      1      9     22       699.7           100.0    
    273      1      9     23       689.5           100.0    
    274      1      9     27       582.0           100.0    
    275      1      9     28       633.3           100.0    
    276      1      9     29       577.6           100.0    
    277      1      9     30       511.2           100.0    
    278      1      9     31       534.7           100.0    
    279      1      9     32       557.3           100.0    
    280      1      9     33       611.4           100.0    
    281      1      9     34       620.5           100.0    
    282      1      9     35       594.5           100.0    
    283      1      9     37       552.1           100.0    
    284      1      9     38       600.5           100.0    
    285      1      9     39       612.9           100.0    
    286      1      9     26       590.0           100.0    
    287      1     10      2       650.5           100.0    
    288      1     10      3       611.7           100.0    
    289      1     10      4       642.8           100.0    
    290      1     10      5       638.6           100.0    
    291      1     10      6       637.6           100.0    
    292      1     10      7       629.8           100.0    
    293      1     10     12       562.1           100.0    
    294      1     10     13       650.5           100.0    
    295      1     10     14       663.1           100.0    
    296      1     10     15       664.8           100.0    
    297      1     10     16       670.5           100.0    
    298      1     10     17       666.7           100.0    
    299      1     10     18       677.0           100.0    
    300      1     10     19       684.8           100.0    
    301      1     10     20       695.8           100.0    
    302      1     10     21       683.6           100.0    
    303      1     10     22       674.9           100.0    
    304      1     10     23       673.2           100.0    
    305      1     10     26       613.1           100.0    
    306      1     10     27       622.1           100.0    
    307      1     10     28       602.8           100.0    
    308      1     10     29       597.3           100.0    
    309      1     10     30       610.8           100.0    
    310      1     10     31       600.5           100.0    
    311      1     10     32       606.5           100.0    
    312      1     10     33       619.7           100.0    
    313      1     10     34       619.9           100.0    
    314      1     10     35       538.6           100.0    
    315      1     11      2       626.6           100.0    
    316      1     11      3       552.7           100.0    
    317      1     11      4       602.2           100.0    
    318      1     11      5       619.6           100.0    
    319      1     11      6       624.0           100.0    
    320      1     11      7       629.0           100.0    
    321      1     11     12       547.4           100.0    
    322      1     11     13       579.3           100.0    
    323      1     11     14       654.5           100.0    
    324      1     11     15       647.9           100.0    
    325      1     11     16       662.3           100.0    
    326      1     11     17       666.2           100.0    
    327      1     11     18       678.0           100.0    
    328      1     11     19       664.1           100.0    
    329      1     11     20       671.0           100.0    
    330      1     11     26       619.4           100.0    
    331      1     11     27       536.3           100.0    
    332      1     11     28       609.9           100.0    
    333      1     11     29       557.8           100.0    
    334      1     11     30       571.4           100.0    
    335      1     11     31       589.8           100.0    
    336      1     11     32       602.7           100.0    
    337      1     11     33       614.0           100.0    
    338      1     11     11       612.8           100.0    
    339      1     12      2       630.1           100.0    
    340      1     12      3       573.4           100.0    
    341      1     12      4       620.8           100.0    
    342      1     12      5       528.7           100.0    
    343      1     12      6       616.0           100.0    
    344      1     12      7       563.8           100.0    
    345      1     12     11       557.2           100.0    
    346      1     12     12       628.0           100.0    
    347      1     12     13       625.4           100.0    
    348      1     12     14       651.7           100.0    
    349      1     12     15       696.2           100.0    
    350      1     12     16       666.7           100.0    
    351      1     12     17       615.4           100.0    
    352      1     12     18       663.8           100.0    
    353      1     12     19       664.7           100.0    
    354      1     12     27       603.4           100.0    
    355      1     12     28       478.9           100.0    
    356      1     12     31       602.7           100.0    
    357      1     12     32       599.7           100.0    
    358      1     12      8       604.2           100.0    
    359      1     12     10       621.2           100.0    
    360      1     13      2       634.5           100.0    
    361      1     13      3       629.8           100.0    
    362      1     13      4       629.9           100.0    
    363      1     13      5       623.4           100.0    
    364      1     13      6       611.9           100.0    
    365      1     13      7       611.1           100.0    
    366      1     13      8       501.6           100.0    
    367      1     13     10       593.8           100.0    
    368      1     13     11       519.0           100.0    
    369      1     13     12       622.7           100.0    
    370      1     13     13       624.2           100.0    
    371      1     13     14       645.1           100.0    
    372      1     13     15       651.4           100.0    
    373      1     13     16       652.9           100.0    
    374      1     13     17       653.9           100.0    
    375      1     13     18       678.7           100.0    
    376      1     13     19       692.8           100.0    
    377      1     13     27       604.7           100.0    
    378      1     13      1       634.4           100.0    
    379      1     13      9       480.2           100.0    
    380      1     13     20       692.5           100.0    
    381      1     13     26       612.5           100.0    
    382      1     13     21       653.7           100.0    
    383      1     13     22       650.4           100.0    
    384      1     13     24       607.6           100.0    
    385      1     13     25       618.2           100.0    
    386      1     14      1       632.7           100.0    
    387      1     14      2       632.4           100.0    
    388      1     14      3       623.4           100.0    
    389      1     14      4       571.3           100.0    
    390      1     14      5       621.4           100.0    
    391      1     14      6       600.0           100.0    
    392      1     14      7       612.0           100.0    
    393      1     14      8       574.0           100.0    
    394      1     14      9       490.4           100.0    
    395      1     14     10       490.1           100.0    
    396      1     14     11       594.9           100.0    
    397      1     14     12       588.6           100.0    
    398      1     14     16       656.8           100.0    
    399      1     14     17       643.6           100.0    
    400      1     14     18       682.2           100.0    
    401      1     14     19       679.7           100.0    
    402      1     14     20       676.5           100.0    
    403      1     14     21       639.0           100.0    
    404      1     14     22       639.7           100.0    
    405      1     14     24       611.4           100.0    
    406      1     14     25       609.0           100.0    
    407      1     14     26       612.1           100.0    
    408      1     14     23       641.5           100.0    
    409      1     15      1       649.7           100.0    
    410      1     15      2       686.8           100.0    
    411      1     15      3       630.7           100.0    
    412      1     15      4       635.7           100.0    
    413      1     15      5       640.8           100.0    
    414      1     15      6       654.2           100.0    
    415      1     15      7       496.0           100.0    
    416      1     15      8       489.8           100.0    
    417      1     15      9       604.9           100.0    
    418      1     15     10       545.1           100.0    
    419      1     15     11       625.6           100.0    
    420      1     15     17       667.7           100.0    
    421      1     15     18       677.4           100.0    
    422      1     15     19       660.1           100.0    
    423      1     15     20       669.8           100.0    
    424      1     15     21       650.5           100.0    
    425      1     15     22       620.8           100.0    
    426      1     15     23       616.8           100.0    
    427      1     15     24       631.0           100.0    
    428      1     15     25       594.7           100.0    
    429      1     15     26       605.0           100.0    
    430      1     16      1       679.0           100.0    
    431      1     16      2       638.4           100.0    
    432      1     16      3       667.2           100.0    
    433      1     16      4       659.9           100.0    
    434      1     16      5       559.6           100.0    
    435      1     16      6       615.5           100.0    
    436      1     16      7       555.3           100.0    
    437      1     16      8       556.8           100.0    
    438      1     16      9       571.5           100.0    
    439      1     16     10       629.8           100.0    
    440      1     16     11       641.5           100.0    
    441      1     16     17       656.3           100.0    
    442      1     16     18       673.6           100.0    
    443      1     16     19       643.2           100.0    
    444      1     16     20       641.9           100.0    
    445      1     16     21       570.6           100.0    
    446      1     16     22       620.5           100.0    
    447      1     16     23       602.0           100.0    
    448      1     16     24       588.4           100.0    
    449      1     16     25       589.7           100.0    
    450      1     16     12       645.0           100.0    
    451      1     17      1       680.0           100.0    
    452      1     17      2       678.4           100.0    
    453      1     17      3       662.9           100.0    
    454      1     17      4       660.1           100.0    
    455      1     17      5       615.6           100.0    
    456      1     17      6       539.4           100.0    
    457      1     17      7       600.0           100.0    
    458      1     17      8       590.2           100.0    
    459      1     17      9       610.0           100.0    
    460      1     17     10       643.6           100.0    
    461      1     17     11       650.0           100.0    
    462      1     17     12       654.7           100.0    
    463      1     17     17       608.6           100.0    
    464      1     17     18       639.0           100.0    
    465      1     17     19       567.3           100.0    
    466      1     17     20       613.3           100.0    
    467      1     17     21       629.5           100.0    
    468      1     17     22       624.4           100.0    
    469      1     17     23       623.7           100.0    
    470      1     17     24       530.7           100.0    
    471      1     17     13       670.9           100.0    
    472      1     17     14       646.7           100.0    
    473      1     17     15       665.7           100.0    
    474      1     17     16       658.4           100.0    
    475      1     18      1       666.0           100.0    
    476      1     18      2       673.3           100.0    
    477      1     18      3       649.9           100.0    
    478      1     18      4       618.5           100.0    
    479      1     18      5       595.7           100.0    
    480      1     18      6       489.7           100.0    
    481      1     18      7       518.4           100.0    
    482      1     18      8       633.4           100.0    
    483      1     18      9       583.5           100.0    
    484      1     18     10       649.9           100.0    
    485      1     18     11       653.6           100.0    
    486      1     18     12       651.1           100.0    
    487      1     18     13       649.8           100.0    
    488      1     18     14       653.4           100.0    
    489      1     18     15       641.7           100.0    
    490      1     18     16       658.4           100.0    
    491      1     18     17       591.1           100.0    
    492      1     18     18       562.5           100.0    
    493      1     18     19       620.0           100.0    
    494      1     18     20       620.5           100.0    
    495      1     18     21       611.6           100.0    
    496      1     18     22       602.9           100.0    
    497      1     18     23       614.5           100.0    
    498      1     19      1       671.9           100.0    
    499      1     19      2       625.5           100.0    
    500      1     19      3       622.5           100.0    
    501      1     19      4       554.3           100.0    
    502      1     19      5       634.6           100.0    
    503      1     19      6       623.9           100.0    
    504      1     19      7       469.5           100.0    
    505      1     19      8       520.7           100.0    
    506      1     19      9       638.9           100.0    
    507      1     19     10       641.2           100.0    
    508      1     19     11       624.3           100.0    
    509      1     19     12       644.7           100.0    
    510      1     19     13       571.0           100.0    
    511      1     19     14       625.1           100.0    
    512      1     19     15       605.5           100.0    
    513      1     19     16       498.6           100.0    
    514      1     19     17       562.2           100.0    
    515      1     19     18       610.2           100.0    
    516      1     19     19       607.4           100.0    
    517      1     19     20       578.3           100.0    
    518      1     19     21       594.8           100.0    
    519      1     19     22       572.4           100.0    
    520      1     19     23       581.4           100.0    
    521      1     20      1       670.5           100.0    
    522      1     20      2       663.9           100.0    
    523      1     20      3       613.2           100.0    
    524      1     20      4       630.7           100.0    
    525      1     20      5       639.5           100.0    
    526      1     20      6       633.2           100.0    
    527      1     20      7       640.5           100.0    
    528      1     20      8       521.0           100.0    
    529      1     20     13       606.6           100.0    
    530      1     20     14       616.2           100.0    
    531      1     20     15       497.9           100.0    
    532      1     20     16       600.5           100.0    
    533      1     20     17       607.5           100.0    
    534      1     20     18       586.0           100.0    
    535      1     20     19       584.3           100.0    
    536      1     20     20       571.8           100.0    
    537      1     20     21       510.0           100.0    
    538      1     20     22       560.2           100.0    
    539      1     20     23       572.5           100.0    
    540      1     21      1       656.6           100.0    
    541      1     21      2       655.9           100.0    
    542      1     21      3       649.8           100.0    
    543      1     21      4       621.3           100.0    
    544      1     21      5       642.9           100.0    
    545      1     21      6       677.8           100.0    
    546      1     21      7       597.0           100.0    
    547      1     21     13       563.9           100.0    
    548      1     21     14       470.0           100.0    
    549      1     21     15       602.8           100.0    
    550      1     21     16       591.6           100.0    
    551      1     21     17       607.7           100.0    
    552      1     21     18       601.6           100.0    
    553      1     21     19       537.4           100.0    
    554      1     21     20       551.9           100.0    
    555      1     21     21       523.2           100.0    
    556      1     21     22       565.1           100.0    
    557      1     22      1       643.1           100.0    
    558      1     22      2       668.2           100.0    
    559      1     22      3       665.5           100.0    
    560      1     22      4       669.7           100.0    
    561      1     22      5       655.3           100.0    
    562      1     22      6       519.2           100.0    
    563      1     22      7       591.8           100.0    
    564      1     22     13       460.2           100.0    
    565      1     22     14       491.3           100.0    
    566      1     22     15       593.0           100.0    
    567      1     22     16       580.0           100.0    
    568      1     22     17       583.4           100.0    
    569      1     22     18       592.5           100.0    
    570      1     22     19       595.9           100.0    
    571      1     22     20       570.8           100.0    
    572      1     22     21       469.6           100.0    
    573      1     23      1       656.8           100.0    
    574      1     23      2       678.0           100.0    
    575      1     23      3       700.4           100.0    
    576      1     23      4       682.3           100.0    
    577      1     23      5       664.8           100.0    
    578      1     23      6       661.3           100.0    
    579      1     23      7       657.1           100.0    
    580      1     23     13       460.6           100.0    
    581      1     23     14       531.4           100.0    
    582      1     23     15       588.5           100.0    
    583      1     23     16       577.9           100.0    
    584      1     23     17       534.5           100.0    
    585      1     23     18       577.8           100.0    
    586      1     23     19       569.6           100.0    
    587      1     23      8       655.6           100.0    
    588      1     24      1       675.1           100.0    
    589      1     24      2       665.0           100.0    
    590      1     24      3       682.3           100.0    
    591      1     24      4       667.0           100.0    
    592      1     24      5       673.4           100.0    
    593      1     24      6       681.5           100.0    
    594      1     24      7       663.9           100.0    
    595      1     24      8       631.4           100.0    
    596      1     24     13       457.2           100.0    
    597      1     24     14       456.9           100.0    
    598      1     24     15       573.0           100.0    
    599      1     24     16       561.6           100.0    
    600      1     24     17       559.7           100.0    
    601      1     24     18       561.0           100.0    
    602      1     24     19       572.6           100.0    
    603      1     24      9       617.4           100.0    
    604      1     24     12       584.3           100.0    
    605      1     25      1       649.3           100.0    
    606      1     25      2       634.3           100.0    
    607      1     25      3       616.3           100.0    
    608      1     25      4       690.7           100.0    
    609      1     25      5       668.6           100.0    
    610      1     25      6       660.4           100.0    
    611      1     25      7       667.0           100.0    
    612      1     25      8       625.6           100.0    
    613      1     25      9       635.4           100.0    
    614      1     25     12       583.2           100.0    
    615      1     25     13       497.2           100.0    
    616      1     25     16       454.5           100.0    
    617      1     25     17       539.4           100.0    
    618      1     25     18       557.9           100.0    
    619      1     25     19       557.5           100.0    
    620      1     25     10       622.1           100.0    
    621      1     25     11       608.3           100.0    
    622      1     26      2       673.4           100.0    
    623      1     26      3       661.8           100.0    
    624      1     26      4       672.6           100.0    
    625      1     26      5       661.2           100.0    
    626      1     26      6       649.6           100.0    
    627      1     26      7       633.5           100.0    
    628      1     26      8       638.9           100.0    
    629      1     26      9       652.3           100.0    
    630      1     26     10       639.6           100.0    
    631      1     26     11       606.1           100.0    
    632      1     26     12       609.8           100.0    
    633      1     26     13       538.4           100.0    
    634      1     26     17       448.0           100.0    
    635      1     26     18       443.2           100.0    
    636      1     26     19       438.7           100.0    
    637      1     27      2       628.9           100.0    
    638      1     27      3       643.4           100.0    
    639      1     27      4       666.0           100.0    
    640      1     27      5       626.0           100.0    
    641      1     27      6       610.0           100.0    
    642      1     27      7       645.7           100.0    
    643      1     27      8       632.2           100.0    
    644      1     27      9       632.8           100.0    
    645      1     27     10       601.6           100.0    
    646      1     27     11       593.4           100.0    
    647      1     27     12       607.7           100.0    
    648      1     27     13       550.6           100.0    
    649      1     28      2       632.1           100.0    
    650      1     28      3       608.1           100.0    
    651      1     28      4       668.7           100.0    
    652      1     28      5       641.6           100.0    
    653      1     28      6       631.0           100.0    
    654      1     28      7       625.0           100.0    
    655      1     28      8       580.7           100.0    
    656      1     28      9       610.1           100.0    
    657      1     28     10       574.1           100.0    
    658      1     28     11       595.3           100.0    
    659      1     28     12       581.5           100.0    
    660      1     28     13       570.8           100.0    
    661      1     29      2       559.2           100.0    
    662      1     29      3       632.3           100.0    
    663      1     29      4       662.5           100.0    
    664      1     29      5       571.6           100.0    
    665      1     29      6       618.6           100.0    
    666      1     29      7       613.3           100.0    
    667      1     29      8       550.4           100.0    
    668      1     29      9       562.0           100.0    
    669      1     29     10       507.6           100.0    
    670      1     29     11       501.1           100.0    
    671      1     29     12       570.9           100.0    
    672      1     29     13       521.6           100.0    
    673      1     30      3       638.4           100.0    
    674      1     30      4       646.6           100.0    
    675      1     30      5       633.7           100.0    
    676      1     30      6       605.8           100.0    
    677      1     30      7       604.6           100.0    
    678      1     30      8       562.5           100.0    
    679      1     30      9       579.8           100.0    
    680      1     30     10       596.1           100.0    
    681      1     30     11       554.5           100.0    
    682      1     30     12       576.3           100.0    
    683      1     30     13       591.1           100.0    
    684      1     31      3       643.2           100.0    
    685      1     31      4       650.6           100.0    
    686      1     31      5       633.9           100.0    
    687      1     31      6       580.6           100.0    
    688      1     31      7       546.0           100.0    
    689      1     31      8       562.2           100.0    
    690      1     31      9       596.4           100.0    
    691      1     31     10       618.5           100.0    
    692      1     31     11       632.9           100.0    
    693      1     31     12       630.0           100.0    
    694      1     31     13       594.9           100.0    
    695      1     31      1       608.0           100.0    
    696      1     31      2       639.7           100.0    
    697      1     32      1       641.2           100.0    
    698      1     32      2       632.8           100.0    
    699      1     32      3       629.1           100.0    
    700      1     32      4       667.2           100.0    
    701      1     32      5       640.0           100.0    
    702      1     32      6       632.2           100.0    
    703      1     32      7       629.6           100.0    
    704      1     32      8       558.9           100.0    
    705      1     32      9       650.7           100.0    
    706      1     32     10       622.2           100.0    
    707      1     32     11       618.7           100.0    
    708      1     33      1       615.1           100.0    
    709      1     33      2       617.4           100.0    
    710      1     33      3       624.5           100.0    
    711      1     33      4       674.7           100.0    
    712      1     33      5       645.1           100.0    
    713      1     33      6       639.3           100.0    
    714      1     33      7       649.7           100.0    
    715      1     33      8       658.9           100.0    
    716      1     33      9       651.3           100.0    
    717      1     33     10       656.4           100.0    
    718      1     33     11       614.7           100.0    
    719      1     34      1       508.8           100.0    
    720      1     34      2       544.2           100.0    
    721      1     34      3       606.7           100.0    
    722      1     34      4       653.3           100.0    
    723      1     34      5       680.6           100.0    
    724      1     34      6       669.6           100.0    
    725      1     34      7       674.0           100.0    
    726      1     34      8       696.6           100.0    
    727      1     34      9       662.3           100.0    
    728      1     34     10       591.0           100.0    
    729      1     35      1       547.8           100.0    
    730      1     35      2       505.4           100.0    
    731      1     35      3       641.0           100.0    
    732      1     35      4       635.9           100.0    
    733      1     35      5       631.6           100.0    
    734      1     35      6       631.9           100.0    
    735      1     35      7       640.8           100.0    
    736      1     35      8       629.4           100.0    
    737      1     35      9       616.9           100.0    
    738      1     36      1       641.2           100.0    
    739      1     36      2       639.9           100.0    
    740      1     36      3       491.0           100.0    
    741      1     36      4       552.7           100.0    
    742      1     36      5       513.1           100.0    
    743      1     36      6       615.6           100.0    
    744      1     36      7       620.0           100.0    
    745      1     37      2       640.2           100.0    
    746      1     37      3       479.7           100.0    
    747      1     37      4       605.9           100.0    
    748      1     37      5       618.7           100.0    
    749      1     37      6       608.5           100.0    
    750      1     37      7       619.7           100.0    
    751      1     38      4       538.0           100.0    
    752      1     38      5       600.6           100.0    
    753      1     38      6       611.2           100.0    
    754      1     38     48       574.7           100.0    
    755      1     38     49       579.7           100.0    
    756      1     39      4       614.5           100.0    
    757      1     39      5       575.8           100.0    
    758      1     39     48       587.0           100.0    
    759      1     39     49       585.0           100.0    
    760      1     39     47       571.5           100.0    
    761      1     40      4       590.7           100.0    
    762      1     40      5       603.5           100.0    
    763      1     40     47       599.4           100.0    
    764      1     40     48       604.5           100.0    
    765      1     40     49       539.7           100.0    
    766      1     40     50       541.5           100.0    
    767      1     41     47       601.1           100.0    
    768      1     41     48       530.8           100.0    
    769      1     41     49       539.2           100.0    
    770      1     41     50       566.1           100.0    
    771      1     41     53       550.3           100.0    
    772      1     41     54       552.8           100.0    
    773      1     41     55       576.8           100.0    
    774      1     42     53       555.4           100.0    
    775      1     42     54       556.9           100.0    
    776      1     42     55       571.9           100.0    
    777      1     42     52       547.2           100.0    
    778      1     43     52       561.6           100.0    
    779      1     43     53       556.2           100.0    
    780      1     43     54       593.7           100.0    
    781      1     43     55       595.3           100.0    
    782      1     43     59       629.7           100.0    
    783      1     44     53       564.8           100.0    
    784      1     44     54       562.4           100.0    
    785      1     44     55       596.5           100.0    
    786      1     44     59       583.4           100.0    
    787      1     45     49       594.8           100.0    
    788      1     46     49       587.9           100.0    
    789      1     46     25       571.0           100.0    
    790      1     46     26       574.5           100.0    
    791      1     46     27       599.9           100.0    
    792      1     46     44       604.4           100.0    
    793      1     46     45       595.9           100.0    
    794      1     46     47       600.1           100.0    
    795      1     46     48       598.8           100.0    
    796      1     47     25       609.2           100.0    
    797      1     47     26       592.8           100.0    
    798      1     47     27       561.1           100.0    
    799      1     47     44       600.9           100.0    
    800      1     47     45       608.1           100.0    
    801      1     47     47       604.3           100.0    
    802      1     47     48       594.5           100.0    
    803      1     47     49       612.9           100.0    
    804      1     47     22       585.4           100.0    
    805      1     47     23       600.6           100.0    
    806      1     47     24       598.8           100.0    
    807      1     47     28       604.4           100.0    
    808      1     47     29       581.4           100.0    
    809      1     47     43       616.5           100.0    
    810      1     47     46       606.8           100.0    
    811      1     48     22       599.3           100.0    
    812      1     48     23       599.6           100.0    
    813      1     48     24       605.0           100.0    
    814      1     48     25       611.3           100.0    
    815      1     48     26       603.5           100.0    
    816      1     48     27       599.7           100.0    
    817      1     48     28       591.9           100.0    
    818      1     48     29       592.7           100.0    
    819      1     48     43       609.6           100.0    
    820      1     48     44       604.7           100.0    
    821      1     48     45       613.5           100.0    
    822      1     48     46       608.0           100.0    
    823      1     48     47       594.7           100.0    
    824      1     48     48       585.0           100.0    
    825      1     48     49       642.9           100.0    
    826      1     48     12       606.2           100.0    
    827      1     48     13       645.3           100.0    
    828      1     48     20       539.0           100.0    
    829      1     48     21       577.4           100.0    
    830      1     48     35       618.8           100.0    
    831      1     48     36       618.1           100.0    
    832      1     48     37       615.6           100.0    
    833      1     48     38       619.0           100.0    
    834      1     48     39       609.7           100.0    
    835      1     48     42       622.5           100.0    
    836      1     48     60       634.6           100.0    
    837      1     48     61       624.6           100.0    
    838      1     48     62       620.2           100.0    
    839      1     48     63       629.0           100.0    
    840      1     48     64       614.1           100.0    
    841      1     49     12       591.7           100.0    
    842      1     49     13       590.5           100.0    
    843      1     49     20       604.2           100.0    
    844      1     49     21       539.0           100.0    
    845      1     49     22       600.9           100.0    
    846      1     49     23       600.3           100.0    
    847      1     49     24       593.4           100.0    
    848      1     49     25       588.1           100.0    
    849      1     49     26       601.0           100.0    
    850      1     49     27       602.5           100.0    
    851      1     49     28       592.1           100.0    
    852      1     49     29       597.4           100.0    
    853      1     49     35       548.7           100.0    
    854      1     49     36       594.0           100.0    
    855      1     49     37       601.3           100.0    
    856      1     49     38       598.4           100.0    
    857      1     49     39       613.9           100.0    
    858      1     49     42       618.8           100.0    
    859      1     49     43       613.9           100.0    
    860      1     49     44       611.3           100.0    
    861      1     49     45       600.2           100.0    
    862      1     49     60       625.9           100.0    
    863      1     49     61       615.7           100.0    
    864      1     49     62       619.9           100.0    
    865      1     49     63       625.4           100.0    
    866      1     49     64       622.9           100.0    
    867      1     49     14       623.2           100.0    
    868      1     49     19       601.7           100.0    
    869      1     49     40       611.4           100.0    
    870      1     49     41       601.3           100.0    
    871      1     49     65       614.5           100.0    
    872      1     49     10       651.1           100.0    
    873      1     49     11       640.0           100.0    
    874      1     49     15       504.1           100.0    
    875      1     49     16       598.5           100.0    
    876      1     49     59       624.5           100.0    
    877      1     50     10       638.1           100.0    
    878      1     50     11       639.6           100.0    
    879      1     50     12       624.5           100.0    
    880      1     50     13       613.3           100.0    
    881      1     50     14       619.9           100.0    
    882      1     50     15       614.4           100.0    
    883      1     50     16       591.5           100.0    
    884      1     50     19       588.0           100.0    
    885      1     50     20       617.1           100.0    
    886      1     50     21       614.3           100.0    
    887      1     50     22       603.5           100.0    
    888      1     50     23       612.3           100.0    
    889      1     50     24       616.9           100.0    
    890      1     50     25       598.9           100.0    
    891      1     50     26       600.3           100.0    
    892      1     50     27       581.9           100.0    
    893      1     50     28       601.0           100.0    
    894      1     50     29       609.6           100.0    
    895      1     50     36       614.1           100.0    
    896      1     50     37       608.9           100.0    
    897      1     50     38       615.0           100.0    
    898      1     50     39       616.3           100.0    
    899      1     50     40       603.5           100.0    
    900      1     50     41       599.3           100.0    
    901      1     50     42       604.8           100.0    
    902      1     50     43       600.2           100.0    
    903      1     50     44       591.2           100.0    
    904      1     50     59       623.6           100.0    
    905      1     50     60       620.4           100.0    
    906      1     50     61       611.2           100.0    
    907      1     50     62       610.4           100.0    
    908      1     50     63       619.7           100.0    
    909      1     50     64       609.6           100.0    
    910      1     50     65       605.4           100.0    
    911      1     50     57       602.0           100.0    
    912      1     50     58       620.6           100.0    
    913      1     44     58       589.4           100.0    
    914      1     43     58       621.0           100.0    
    915      1     12     20       672.3           100.0    
    916      1     45     58       588.6           100.0    
    917      1     10     36       600.1           100.0    
    918      1     50     56       604.5           100.0    
    919      1     47     50       573.0           100.0    
    920      1     47     64       605.0           100.0    
    921      1     49     56       608.9           100.0    
    922      1      3      8       580.1           100.0    
    923      1     21      8       474.4           100.0    
    924      1     38     55       588.7           100.0    
    925      1     29     14       548.7           100.0    
    926      1     47     36       618.7           100.0    
    927      1     39     55       590.4           100.0    
    928      1     37      1       652.6           100.0    
    929      1     39     68       749.7           100.0    
    930      1     20     12       623.0           100.0    
    931      1      9     36       548.5           100.0    
    932      1      6      8       627.8           100.0    
    933      1     49     57       612.4           100.0    
    934      1     27     17       443.8           100.0    
    935      1      2      8       542.0           100.0    
    936      1     47     38       622.9           100.0    
    937      1     16     15       682.4           100.0    
    938      1     47     63       615.0           100.0    
    939      1     46     30       580.1           100.0    
    940      1     20      9       647.4           100.0    
    941      1     23     20       572.7           100.0    
    942      1     12      1       634.2           100.0    
    943      1     11     23       639.7           100.0    
    944      1     10     38       504.9           100.0    
    945      1     25     14       457.0           100.0    
    946      1     41      3       639.2           100.0    
    947      1     38     56       591.4           100.0    
    948      1     12     26       611.3           100.0    
    949      1     38      3       588.0           100.0    
    950      1     49     46       598.6           100.0    
    951      1     28     14       577.6           100.0    
    952      1      4     12       650.0           100.0    
    953      1     49     18       606.3           100.0    
    954      1      1     54       760.1           100.0    
    955      1     29     15       590.5           100.0    
    956      1     47     42       621.2           100.0    
    957      1      5     26       750.4           100.0    
    958      1      5     12       623.5           100.0    
    959      1     47     62       629.9           100.0    
    960      1     47     30       579.6           100.0    
    961      1     11     21       641.8           100.0    
    962      1     43     60       633.5           100.0    
    963      1     37     55       598.6           100.0    
    964      1     44     72       733.3           100.0    
    965      1     45     48       588.0           100.0    
    966      1     12     70       873.5           100.0    
    967      1      8     11       649.9           100.0    
    968      1     44     71       744.6           100.0    
    969      1     22      8       482.6           100.0    
    970      1     44     57       619.7           100.0    
    971      1     39     54       581.6           100.0    
    972      1     44     56       610.0           100.0    
    973      1     48     33       581.8           100.0    
    974      1     48     65       616.1           100.0    
    975      1      1      9       636.8           100.0    
    976      1     29     16       562.3           100.0    
    977      1     49     58       631.2           100.0    
    978      1     23     12       460.5           100.0    
    979      1     48     34       611.8           100.0    
    980      1      7     36       626.6           100.0    
    981      1     11     22       647.8           100.0    
    982      1     48     30       601.0           100.0    
    983      1     43     71       748.7           100.0    
    984      1     21     12       576.8           100.0    
    985      1     50     30       599.4           100.0    
    986      1     46     64       614.0           100.0    
    987      1     24     11       552.2           100.0    
    988      1     40      3       547.1           100.0    
    989      1     25     15       452.3           100.0    
    990      1     44     52       569.5           100.0    
    991      1     39      3       502.8           100.0    
    992      1     15     15       666.4           100.0    
    993      1     45     59       601.3           100.0    
    994      1     49     30       596.5           100.0    
    995      1     28     15       561.8           100.0    
    996      1     28     16       553.8           100.0    
    997      1     49      9       646.8           100.0    
    998      1     38     47       558.0           100.0    
    999      1     48     59       621.3           100.0    
   1000      1     50     32       594.5           100.0    
   1001      1     12      9       487.1           100.0    
   1002      1      8     36       598.2           100.0    
   1003      1     46     43       610.8           100.0    
   1004      1     20     11       627.0           100.0    
   1005      1     26     16       448.1           100.0    
   1006      1     46     46       596.0           100.0    
   1007      1     40     68       722.1           100.0    
   1008      1     27     14       562.6           100.0    
   1009      1     50     46       574.1           100.0    
   1010      1     48     19       531.5           100.0    
   1011      1     48     75       705.6           100.0    
   1012      1     46     63       619.1           100.0    
   1013      1     45     44       589.5           100.0    
   1014      1     20     10       642.9           100.0    
   1015      1     14     15       609.5           100.0    
   1016      1     21      9       547.1           100.0    
   1017      1     33     62       698.8           100.0    
   1018      1     10     37       594.5           100.0    
   1019      1     22     12       460.2           100.0    
   1020      1     27     16       561.1           100.0    
   1021      1     24     10       617.3           100.0    
   1022      1     42     51       598.7           100.0    
   1023      1     31     51       605.8           100.0    
   1024      1     14     13       536.1           100.0    
   1025      1     43     61       624.4           100.0    
   1026      1     38     54       594.5           100.0    
   1027      1     43     72       722.0           100.0    
   1028      1     23      9       612.6           100.0    
   1029      1     45     64       625.6           100.0    
   1030      1     47     60       637.1           100.0    
   1031      1     49     55       598.7           100.0    
   1032      1     26     14       450.8           100.0    
   1033      1     19     70       795.0           100.0    
   1034      1     11      1       629.7           100.0    
   1035      1     43     62       595.5           100.0    
   1036      1     11      8       608.3           100.0    
   1037      1     45     45       576.7           100.0    
   1038      1      8     25       661.2           100.0    
   1039      1     30     51       655.0           100.0    
   1040      1     45     26       604.3           100.0    
   1041      1     12     23       649.7           100.0    
   1042      1      7     24       707.5           100.0    
   1043      1     47     35       598.1           100.0    
   1044      1     47     75       705.2           100.0    
   1045      1     47     37       622.0           100.0    
   1046      1     37     56       599.7           100.0    
   1047      1     43     57       615.9           100.0    
   1048      1     41      2       673.2           100.0    
   1049      1      7     11       650.0           100.0    
   1050      1     38      2       588.1           100.0    
   1051      1     14     27       593.0           100.0    
   1052      1     47     61       633.4           100.0    
   1053      1     43     51       614.6           100.0    
   1054      1     45     63       624.3           100.0    
   1055      1     12     30       599.5           100.0    
   1056      1     14     14       578.9           100.0    
   1057      1     49     71       718.7           100.0    
   1058      1     12     21       669.6           100.0    
   1059      1     15     42       593.2           100.0    
   1060      1     27     18       445.2           100.0    
   1061      1      6     40       644.3           100.0    
   1062      1     50     55       593.2           100.0    
   1063      1     44     60       617.7           100.0    
   1064      1     30      1       624.3           100.0    
   1065      1     48     41       624.4           100.0    
   1066      1     49     75       694.7           100.0    
   1067      1      1     53       779.2           100.0    
   1068      1     19     71       868.6           100.0    
   1069      1      9      1       643.7           100.0    
   1070      1     49     54       592.5           100.0    
   1071      1      7      8       509.7           100.0    
   1072      1     41      4       572.8           100.0    
   1073      1     40     51       544.9           100.0    
   1074      1      5     51       821.8           100.0    
   1075      1     45     65       625.1           100.0    
   1076      1     47     59       618.6           100.0    
   1077      1     41     56       568.3           100.0    
   1078      1      9     25       672.1           100.0    
   1079      1     50     18       612.9           100.0    
   1080      1     45     72       724.0           100.0    
   1081      1     46     50       574.1           100.0    
   1082      1     27     15       575.9           100.0    
   1083      1      7     64       755.8           100.0    
   1084      1     35     70       743.7           100.0    
   1085      1     19     72       868.2           100.0    
   1086      1     47     65       619.6           100.0    
   1087      1      9     24       679.5           100.0    
   1088      1     45     47       562.5           100.0    
   1089      1     28     17       454.3           100.0    
   1090      1      2     25       756.2           100.0    
   1091      1      2     54       762.7           100.0    
   1092      1     48     32       592.1           100.0    
   1093      1     46     65       615.6           100.0    
   1094      1     32     12       592.9           100.0    
   1095      1     50     54       589.8           100.0    
   1096      1     38     66       738.3           100.0    
   1097      1     44     63       606.3           100.0    
   1098      1     44     64       625.3           100.0    
   1099      1     49     17       598.0           100.0    
   1100      1     31     52       602.4           100.0    
   1101      1     46     29       587.7           100.0    
   1102      1     26     15       502.2           100.0    
   1103      1     43     56       608.5           100.0    
   1104      1     15     12       638.7           100.0    
   1105      1     42      1       680.1           100.0    
   1106      1     49     72       710.4           100.0    
   1107      1     22      9       568.6           100.0    
   1108      1     29      1       592.9           100.0    
   1109      1     10      1       648.7           100.0    
   1110      1     39     46       554.0           100.0    
   1111      1     50     75       689.7           100.0    
   1112      1     34     68       734.0           100.0    
   1113      1     30     14       572.3           100.0    
   1114      1      7     40       637.1           100.0    
   1115      1     23     11       598.6           100.0    
   1116      1     39     57       601.7           100.0    
   1117      1     49     34       606.5           100.0    
   1118      1     31     50       583.4           100.0    
   1119      1     42     71       629.3           100.0    
   1120      1     42     75       708.4           100.0    
   1121      1     34     62       637.2           100.0    
   1122      1     43     75       719.8           100.0    
   1123      1     30      2       631.9           100.0    
   1124      1      4     50       766.0           100.0    
   1125      1     39     69       741.2           100.0    
   1126      1     12     71       844.9           100.0    
   1127      1     13     43       624.4           100.0    
   1128      1     44     62       599.3           100.0    
   1129      1     35     68       764.4           100.0    
   1130      1     48     71       695.0           100.0    
   1131      1     39     66       692.1           100.0    
   1132      1     12     43       629.3           100.0    
   1133      1     45     55       570.0           100.0    
   1134      1     15     27       514.3           100.0    
   1135      1     11     70       813.5           100.0    
   1136      1     36     55       588.0           100.0    
   1137      1     34     69       754.8           100.0    
   1138      1      4      8       660.0           100.0    
   1139      1     48     50       580.2           100.0    
   1140      1     38      7       592.2           100.0    
   1141      1     38     50       567.1           100.0    
   1142      1     26      1       669.4           100.0    
   1143      1     21     11       461.0           100.0    
   1144      1     46     62       625.0           100.0    
   1145      1     45     46       591.0           100.0    
   1146      1     46     59       629.6           100.0    
   1147      1     34     70       736.3           100.0    
   1148      1     16     14       674.1           100.0    
   1149      1      2     23       739.5           100.0    
   1150      1      4     51       798.9           100.0    
   1151      1     35     69       750.3           100.0    
   1152      1      3     61       770.0           100.0    
   1153      1      2     61       759.7           100.0    
   1154      1     46     38       602.0           100.0    
   1155      1     39      6       523.3           100.0    
   1156      1     50     45       597.7           100.0    
   1157      1      5     50       797.1           100.0    
   1158      1     38     57       603.7           100.0    
   1159      1     11     34       606.2           100.0    
   1160      1     11     43       599.5           100.0    
   1161      1     42     56       589.7           100.0    
   1162      1     21     10       500.2           100.0    
   1163      1     48     11       653.5           100.0    
   1164      1     42     50       593.2           100.0    
   1165      1      1     55       752.5           100.0    
   1166      1      3     60       797.9           100.0    
   1167      1     11     10       615.8           100.0    
   1168      1      9     47       724.6           100.0    
   1169      1      4     25       770.2           100.0    
   1170      1     48     72       699.7           100.0    
   1171      1     23     10       577.3           100.0    
   1172      1     48     40       618.7           100.0    
   1173      1     35     71       739.8           100.0    
   1174      1      5      8       655.1           100.0    
   1175      1     30     50       614.5           100.0    
   1176      1     33     68       733.8           100.0    
   1177      1     40     46       584.7           100.0    
   1178      1     42     60       633.1           100.0    
   1179      1     36     56       602.7           100.0    
   1180      1     42     49       561.0           100.0    
   1181      1     42     48       577.5           100.0    
   1182      1     48     14       502.1           100.0    
   1183      1      2     47       688.3           100.0    
   1184      1     41     51       548.6           100.0    
   1185      1     12     29       582.2           100.0    
   1186      1     13     23       649.7           100.0    
   1187      1     50     17       577.3           100.0    
[...]
        3428.       3456.       3478.       3494.       3511.       3548.       3601.       3644.       3715.       3812.    
        3946.       4112.       4310.       4524.       4732.       4947.       5157.       5358.       5549.       5720.    
        5882.       6048.       6226.       6394.       6563.       6713.       6835.       6933.       7016.       7080.    
        7120.       7136.       7323.       7276.       7034.       6482.       5839.       5430.       5229.       5087.    
        4942.       4806.       4677.       4592.       4547.    
  33   1.9488E+04  1.9376E+04  1.9261E+04  1.9117E+04  1.8858E+04  1.8403E+04  1.7958E+04  1.7583E+04  1.7631E+04  1.7803E+04
       1.6986E+04  1.3155E+04  1.0589E+04   8042.       7486.       1257.       753.5       823.3       1358.       1702.    
        1975.       2220.       2451.       2649.       2817.       2969.       3076.       3145.       3196.       3231.    
        3253.       3270.       3282.       3294.       3313.       3356.       3405.       3449.       3514.       3615.    
        3761.       3942.       4178.       4429.       4682.       4927.       5159.       5370.       5558.       5728.    
        5891.       6066.       6268.       6473.       6661.       6810.       6935.       7039.       7123.       7180.    
        7211.       7212.       7537.       7343.       6823.       6175.       5518.       4895.       4808.       4731.    
        4641.       4542.       4447.       4376.       4331.    
  34   1.9361E+04  1.9139E+04  1.9084E+04  1.8938E+04  1.8505E+04  1.7747E+04  1.7259E+04  1.6984E+04  1.6789E+04  1.7984E+04
       1.7927E+04  1.0683E+04  1.5198E+04   7492.       519.6       723.8       798.5       1201.       1542.       1802.    
        2021.       2225.       2417.       2581.       2726.       2872.       2969.       3008.       3028.       3039.    
        3048.       3052.       3056.       3082.       3115.       3156.       3172.       3202.       3257.       3350.    
        3502.       3721.       3990.       4287.       4579.       4863.       5117.       5334.       5514.       5670.    
        5827.       6013.       6276.       6529.       6737.       6908.       7038.       7149.       7233.       7271.    
        7291.       7519.       7503.       6988.       6269.       5475.       4870.       4394.       4376.       4352.    
        4307.       4246.       4179.       4122.       4084.    
  35   1.8001E+04  1.8465E+04  1.8969E+04  1.8856E+04  1.8156E+04  1.6403E+04  1.5874E+04  1.5306E+04  1.4975E+04  1.0829E+04
       1.5543E+04   8197.       8291.       5567.       587.4       1064.       1228.       1455.       1667.       1854.    
        2027.       2192.       2344.       2479.       2603.       2713.       2809.       2833.       2825.       2813.    
        2809.       2808.       2821.       2867.       2899.       2883.       2882.       2891.       2926.       3004.    
        3143.       3406.       3745.       4083.       4426.       4755.       5030.       5245.       5404.       5508.    
        5631.       5821.       6234.       6575.       6815.       7005.       7137.       7243.       7318.       7627.    
        7621.       7544.       7108.       6329.       5307.       4266.       3958.       3883.       3933.       3957.    
        3951.       3919.       3875.       3833.       3803.    
  36   1.7557E+04  1.7356E+04  1.8695E+04  1.8558E+04  1.7878E+04  1.3916E+04  1.3271E+04  1.2029E+04  1.5191E+04   6284.    
        5137.       5524.       6946.       538.0       685.4       1246.       1437.       1586.       1729.       1862.    
        1991.       2116.       2229.       2335.       2437.       2516.       2597.       2614.       2596.       2557.    
        2542.       2570.       2584.       2573.       2575.       2550.       2533.       2511.       2506.       2557.    
        2692.       2958.       3382.       3820.       4211.       4601.       4917.       5115.       5210.       5233.    
        5255.       5305.       5804.       6682.       6894.       7100.       7222.       7317.       7371.       7605.    
        7474.       7021.       6235.       5107.       3791.       2940.       3047.       3348.       3495.       3575.    
        3596.       3579.       3548.       3511.       3484.    
  37   1.7042E+04  1.6682E+04  1.5107E+04  1.3124E+04  1.2331E+04  1.1968E+04  1.0543E+04   8221.       4886.       4708.    
        4495.       4862.       5153.       509.3       1228.       1427.       1544.       1643.       1737.       1825.    
        1912.       1994.       2069.       2142.       2211.       2297.       2344.       2363.       2343.       2268.    
        2262.       2258.       2261.       2246.       2207.       2162.       2118.       2056.       1974.       1973.    
        2079.       2422.       2893.       3436.       3915.       4409.       4780.       4948.       4959.       4892.    
        4777.       4679.       4493.       6129.       7080.       7226.       7306.       7393.       7412.       7481.    
        6956.       6023.       4782.       3426.       2521.       2639.       2766.       2951.       3108.       3231.    
        3269.       3247.       3208.       3156.       3123.    
  38   1.6376E+04  1.6021E+04  1.4609E+04  1.2500E+04  1.1213E+04  1.0436E+04   8092.       5692.       2806.       542.4    
        741.6       534.8       506.7       612.9       1341.       1496.       1571.       1633.       1690.       1742.    
        1793.       1829.       1854.       1876.       1903.       2003.       2060.       2049.       2009.       1957.    
        1927.       1918.       1906.       1890.       1827.       1732.       1652.       1533.       1136.       1110.    
        1163.       1743.       2244.       2880.       3539.       4189.       4629.       4767.       4677.       4426.    
        4040.       3876.       3825.       5513.       7127.       7799.       7954.       7534.       7814.       7387.    
        6300.       4815.       3148.       2150.       2212.       2297.       2412.       2578.       2752.       2926.    
        2980.       2918.       2840.       2763.       2709.    
  39   1.5730E+04  1.7809E+04  1.6883E+04  1.0563E+04   9227.       7060.       4331.       550.1       661.7       582.2    
        1031.       494.1       591.4       1184.       1406.       1492.       1534.       1565.       1591.       1611.    
        1625.       1619.       1579.       1519.       1517.       1533.       1569.       1583.       1547.       1500.    
        1458.       1515.       1527.       1511.       1427.       1064.       1013.       988.9       944.9       1050.    
        937.7       1224.       1501.       2142.       2999.       3982.       4509.       4625.       4366.       3537.    
        2947.       2813.       2805.       4341.       6780.       8055.       8841.       8870.       8491.       7272.    
        5460.       3216.       1904.       1886.       1873.       1884.       1977.       2168.       2375.       2682.    
        2748.       2540.       2415.       2306.       2210.    
  40   1.4249E+04  1.3011E+04  1.1136E+04   9149.       6513.       670.4       585.7       591.5       919.4       1040.    
        1218.       1310.       1249.       1329.       1395.       1428.       1441.       1446.       1445.       1435.    
        1422.       1384.       1229.       857.1       832.1       798.9       795.0       844.2       892.5       970.0    
        937.1       880.7       948.4       978.8       969.2       938.5       1200.       1236.       1188.       1130.    
        879.7       851.6       922.1       1497.       2310.       4021.       5003.       4571.       639.5       841.7    
        1031.       1054.       1091.       2210.       5458.       7237.       9045.       9435.       8428.       6822.    
        4341.       1768.       1641.       1569.       1476.       1263.       1337.       1669.       1817.       1980.    
        2266.       1971.       1894.       1775.       1480.    
  41   1.3413E+04  1.2158E+04   9984.       8238.       518.7       508.1       853.5       861.2       993.6       1095.    
        1198.       1259.       1264.       1284.       1303.       1306.       1292.       1277.       1258.       1202.    
        1164.       1089.       784.1       735.8       1095.       1226.       1199.       1131.       1057.       963.8    
        749.6       735.2       1010.       1184.       1284.       1375.       1522.       1521.       1507.       1412.    
        1196.       891.4       822.6       821.2       1951.       3292.       4622.       589.5       588.9       1742.    
        1695.       1210.       816.6       2600.       4339.       5266.       8082.       8574.       7734.       5913.    
        3175.       1389.       979.0       1021.       1081.       1083.       1107.       1195.       1201.       1057.    
        1449.       1196.       1187.       1192.       1194.    
  42   1.2993E+04  1.1408E+04   8219.       5018.       542.4       706.5       781.6       859.3       943.8       1020.    
        1078.       1119.       1140.       1153.       1156.       1131.       1080.       1053.       1015.       822.4    
        835.1       818.0       786.8       1116.       1439.       1554.       1460.       1294.       1156.       991.2    
        705.8       713.9       1095.       1365.       1563.       1716.       1840.       1920.       1914.       1810.    
        1601.       1371.       1182.       801.2       672.5       617.9       570.6       659.2      1.2642E+04   4594.    
        2442.       606.2       629.8       3873.       4431.       5131.       6719.       7207.       6358.       4311.    
        1445.       849.9       824.0       1226.       1335.       1313.       1175.       1356.       1351.       1148.    
        1116.       1115.       1130.       1173.       1336.    
  43   1.2742E+04  1.5986E+04   4938.       594.8       513.9       562.4       612.1       767.6       845.8       896.6    
        930.7       949.4       967.3       977.4       972.4       929.2       750.9       746.7       788.7       835.6    
        1093.       1205.       1316.       1519.       1735.       1738.       1612.       1419.       1225.       1025.    
        716.1       740.2       1218.       1574.       1823.       2019.       2157.       2300.       2320.       2225.    
        2025.       1777.       1566.       1881.       1878.       742.1       731.6       4288.       7906.       6999.    
        4645.       654.3       601.0       2854.       3678.       4878.       5305.       4662.       4241.       3299.    
        1249.       760.9       1225.       1493.       1670.       1647.       1589.       1625.       1595.       1528.    
        1496.       1482.       1479.       1495.       1538.    
  44    9345.      1.4490E+04   520.3       506.0       530.6       587.2       634.3       681.5       711.7       734.3    
        733.1       723.3       726.1       740.9       758.5       757.9       761.4       831.2       1090.       1233.    
        1399.       1530.       1666.       1873.       1966.       1870.       1726.       1511.       1280.       1067.    
        748.6       818.9       1402.       1790.       2080.       2301.       2510.       2642.       2657.       2581.    
        2387.       2282.       3003.       3771.       3727.       3560.       4372.       6334.       7540.       7575.    
        6284.       4150.       979.0       824.7       2664.       3375.       2954.       717.9       690.8       1923.    
        722.1       757.2       1442.       2470.       2057.       1994.       1944.       1915.       1848.       1779.    
        1741.       1727.       1720.       1727.       1741.    
  45    4800.       3732.       522.4       541.2       619.7       825.5       931.1       990.7       1040.       1061.    
        1063.       1121.       1117.       1106.       1067.       1105.       1210.       1299.       1484.       1598.    
        1717.       1827.       1931.       2106.       2230.       3240.       3418.       2628.       1313.       1109.    
        806.6       1226.       1671.       2035.       2352.       2604.       2806.       2932.       2961.       2915.    
        3897.       4695.       6357.       6754.       6559.       6104.       6518.       7242.       7523.       7342.    
        6560.       5690.       4116.       1241.       1115.       749.5       759.5       712.2       722.1       746.8    
        733.0       3637.       4099.       3862.       2369.       2364.       2340.       2246.       2133.       2030.    
        1968.       1945.       1938.       1941.       1945.    
  46    1583.       830.9       579.7       642.0       889.1       1083.       1226.       1370.       1454.       1490.    
        1369.       1433.       1377.       1435.       1460.       1444.       1696.       1675.       1754.       1807.    
        1910.       2017.       3741.       5077.       6513.       7596.       6110.       4946.       2868.       1730.    
        828.7       1498.       1888.       2257.       2591.       2855.       3058.       3201.       3269.       4735.    
        6330.       7691.       9367.       9933.      1.0455E+04   9474.       8281.       7760.       7369.       7149.    
        6802.       6380.       5829.       5055.       4599.       4498.       4637.       4856.       4952.       5179.    
        5650.       6726.       6460.       5520.       3827.       2731.       2809.       2681.       2512.       2322.    
        2212.       2152.       2142.       2143.       2142.    
  47    803.9       622.9       663.4       909.9       1133.       1321.       1475.       1677.       1793.       1979.    
        3346.       2201.       4228.       1662.       1717.       3408.       2250.       2074.       1986.       2968.    
        3598.       4549.       6762.       8697.      1.0417E+04  1.1811E+04  1.5691E+04   7318.       5090.       2595.    
        665.0       1777.       2089.       2455.       2791.       3066.       3281.       3461.       5127.       7203.    
        8774.      1.0260E+04  1.1639E+04  1.2972E+04  1.3210E+04  1.1454E+04   8930.       7745.       7493.       7233.    
        6900.       6580.       6303.       6062.       5880.       6370.       7083.       7593.       7910.       8107.    
        8186.       8175.       7571.       6476.       5059.       4032.       3389.       3186.       2930.       2590.    
        2405.       2323.       2321.       2321.       2319.    
  48    644.6       685.0       918.4       1131.       1323.       1490.       1702.       1861.       2111.       2493.    
        2973.       4831.       7263.      1.3625E+04   3398.       3328.       2937.       4297.       5613.       6391.    
        6414.       7865.       9653.      1.1270E+04  1.2579E+04  1.4279E+04  1.6637E+04  1.6341E+04   6854.       3374.    
        658.6       2449.       3505.       4043.       4403.       4900.       5356.       5980.       7819.       9499.    
       1.0919E+04  1.2291E+04  1.3559E+04  1.4477E+04  1.3548E+04  1.0766E+04   8332.       7891.       7607.       7358.    
        7041.       6744.       6538.       6403.       6374.       6636.       8027.       9056.       9574.       9642.    
        9352.       8557.       7338.       6299.       5011.       4601.       4023.       3699.       3366.       3517.    
        3420.       3064.       2475.       2471.       2467.    
  49    944.0       991.3       1127.       1287.       1441.       1630.       1842.       1996.       2203.       3887.    
        5144.       7537.       9710.      1.1656E+04  1.4642E+04   6539.       6257.       7483.       8687.       9330.    
       1.0622E+04  1.0900E+04  1.1994E+04  1.3187E+04  1.4522E+04  1.5917E+04  1.7289E+04  1.7456E+04   8859.       4837.    
        659.4       3794.       5051.       5686.       6430.       7038.       7663.       8576.       9954.      1.1308E+04
       1.2733E+04  1.3848E+04  1.4682E+04  1.4764E+04  1.2852E+04   9062.       8448.       8011.       7706.       7440.    
        7163.       6899.       6709.       6620.       6590.       7703.       9158.      1.0054E+04  1.0525E+04  1.0425E+04
        9603.       7811.       6240.       5811.       5240.       4790.       4398.       4191.       4291.       4464.    
        4387.       3992.       3227.       2594.       2584.    
  50    1107.       1137.       1236.       1365.       1499.       1710.       1927.       2046.       5419.       6019.    
        7044.       8910.      1.0652E+04  1.1778E+04  1.1760E+04   9916.       9336.       9408.      1.0232E+04  1.0870E+04
       1.1924E+04  1.2342E+04  1.3168E+04  1.4107E+04  1.5358E+04  1.6516E+04  1.8459E+04  1.4412E+04  1.0598E+04   7551.    
        556.9       5203.       5883.       6567.       7360.       8020.       8785.       9803.      1.1017E+04  1.2408E+04
       1.3829E+04  1.4740E+04  1.5248E+04  1.4802E+04  1.2366E+04   9093.       8479.       8070.       7757.       7479.    
        7214.       6995.       6817.       6746.       7397.       8738.       9984.      1.0710E+04  1.1007E+04  1.0691E+04
        9209.       6775.       6313.       5852.       5344.       4913.       4593.       4453.       4543.       4838.    
        4804.       4495.       3887.       3121.       2661.    

 HEAD WILL BE SAVED ON UNIT   51 AT END OF TIME STEP    1, STRESS PERIOD    1
1
  VOLUMETRIC BUDGET FOR ENTIRE MODEL AT END OF TIME STEP    1, STRESS PERIOD   1
  ------------------------------------------------------------------------------

     CUMULATIVE VOLUMES      L**3       RATES FOR THIS TIME STEP      L**3/T
     ------------------                 ------------------------

           IN:                                      IN:
           ---                                      ---
             STORAGE =           0.0000               STORAGE =           0.0000
       CONSTANT HEAD =           0.0000         CONSTANT HEAD =           0.0000
              DRAINS =           0.0000                DRAINS =           0.0000
       RIVER LEAKAGE =           0.0000         RIVER LEAKAGE =           0.0000
            RECHARGE =  7182011904.0000              RECHARGE =  7182011904.0000

            TOTAL IN =  7182011904.0000              TOTAL IN =  7182011904.0000

          OUT:                                     OUT:
          ----                                     ----
             STORAGE =           0.0000               STORAGE =           0.0000
       CONSTANT HEAD =           0.0000         CONSTANT HEAD =           0.0000
              DRAINS =  2192740352.0000                DRAINS =  2192740352.0000
       RIVER LEAKAGE =  4989271552.0000         RIVER LEAKAGE =  4989271552.0000
            RECHARGE =           0.0000              RECHARGE =           0.0000

           TOTAL OUT =  7182011904.0000             TOTAL OUT =  7182011904.0000

            IN - OUT =           0.0000              IN - OUT =           0.0000

 PERCENT DISCREPANCY =           0.00     PERCENT DISCREPANCY =           0.00






         TIME SUMMARY AT END OF TIME STEP    1 IN STRESS PERIOD    1
                    SECONDS     MINUTES      HOURS       DAYS        YEARS
                    -----------------------------------------------------------
   TIME STEP LENGTH  86400.      1440.0      24.000      1.0000     2.73785E-03
 STRESS PERIOD TIME  86400.      1440.0      24.000      1.0000     2.73785E-03
         TOTAL TIME  86400.      1440.0      24.000      1.0000     2.73785E-03
1

 Run end date and time (yyyy/mm/dd hh:mm:ss): 2021/04/15  1:05:04
 Elapsed run time:  0.048 Seconds

